@<TRIPOS>MOLECULE
*****
 31 32 0 0 0
SMALL
USER_CHARGES

@<TRIPOS>ATOM
      1 C1          3.7364   -0.7151   -0.0338 C.3     1  LIG1        0.0000
      2 C2          2.4087    0.0251   -0.0173 C.ar    1  LIG1        0.0000
      3 C3          2.3879    1.4162   -0.0099 C.ar    1  LIG1        0.0000
      4 C4          1.1726    2.0939    0.0051 C.ar    1  LIG1        0.0000
      5 C5          1.1512    3.5440    0.0123 C.2     1  LIG1        0.0000
      6 N6          0.0596    4.1528    0.0260 N.2     1  LIG1        0.0000
      7 N7          0.1808    5.4973    0.0314 N.pl3   1  LIG1        0.0000
      8 C8          0.7935    6.2456   -0.9274 C.2     1  LIG1        0.0000
      9 C9          0.6835    7.5415   -0.5240 C.2     1  LIG1        0.0000
     10 N10         0.0104    7.5076    0.6578 N.2     1  LIG1        0.0000
     11 N11        -0.2709    6.3038    0.9607 N.2     1  LIG1        0.0000
     12 C12        -0.0220    1.3803    0.0133 C.ar    1  LIG1        0.0000
     13 O13        -1.2167    2.0094    0.0280 O.3     1  LIG1        0.0000
     14 C14        -2.3547    1.1601    0.0354 C.3     1  LIG1        0.0000
     15 F15        -2.5676    0.7148    1.2705 F       1  LIG1        0.0000
     16 F16        -3.4189    1.8412   -0.3798 F       1  LIG1        0.0000
     17 C17        -0.0014   -0.0109    0.0068 C.ar    1  LIG1        0.0000
     18 C18         1.2136   -0.6886   -0.0082 C.ar    1  LIG1        0.0000
     19 C19         1.1965   -2.2089   -0.0149 C.3     1  LIG1        0.0000
     20 H           4.4867   -0.0540   -0.0386 H       1  LIG1        0.0000
     21 H           3.8062   -1.2926    0.7796 H       1  LIG1        0.0000
     22 H           3.7898   -1.2857   -0.8533 H       1  LIG1        0.0000
     23 H           3.2464    1.9291   -0.0154 H       1  LIG1        0.0000
     24 H           2.0097    4.0568    0.0064 H       1  LIG1        0.0000
     25 H           1.2352    5.9109   -1.7598 H       1  LIG1        0.0000
     26 H           1.0269    8.3517   -0.9989 H       1  LIG1        0.0000
     27 H          -2.1960    0.3847   -0.5757 H       1  LIG1        0.0000
     28 H          -0.8599   -0.5236    0.0129 H       1  LIG1        0.0000
     29 H           0.2500   -2.5316   -0.0067 H       1  LIG1        0.0000
     30 H           1.6557   -2.5438   -0.8377 H       1  LIG1        0.0000
     31 H           1.6724   -2.5511    0.7952 H       1  LIG1        0.0000
@<TRIPOS>BOND
     1     1     2    1
     2     2     3   ar
     3     3     4   ar
     4     4     5    1
     5     5     6    2
     6     6     7    1
     7     7     8    1
     8     8     9    2
     9     9    10    1
    10    10    11    2
    11    11     7    1
    12     4    12   ar
    13    12    13    1
    14    13    14    1
    15    14    15    1
    16    14    16    1
    17    12    17   ar
    18    17    18   ar
    19    18     2   ar
    20    18    19    1
    21     1    20    1
    22     1    21    1
    23     1    22    1
    24     3    23    1
    25     5    24    1
    26     8    25    1
    27     9    26    1
    28    14    27    1
    29    17    28    1
    30    19    29    1
    31    19    30    1
    32    19    31    1
