@<TRIPOS>MOLECULE

  64   67
SMALL
USER_CHARGES
@<TRIPOS>ATOM
   1 C1           0.8605    -2.1196    -2.1453 C.3          1    LIG   0.0000
   2 O2           2.0675    -2.1160    -1.3973 O.3          1    LIG   0.0000
   3 C3           1.9111    -1.6938    -0.0505 C.3          1    LIG   0.0000
   4 C4           1.3633    -0.2769    -0.0243 C.2          1    LIG   0.0000
   5 N5           2.0732     0.8228    -0.0161 N.2          1    LIG   0.0000
   6 O6           1.2871     1.8145     0.0041 O.2          1    LIG   0.0000
   7 C7           0.0486     1.3846     0.0048 C.2          1    LIG   0.0000
   8 C8          -1.1905     2.2664     0.0241 C.3          1    LIG   0.0000
   9 N9          -1.5820     2.5310     1.4162 N.3          1    LIG   0.0000
  10 C10         -2.0997     1.2854     2.0032 C.3          1    LIG   0.0000
  11 C11         -2.3304     1.4434     3.4978 C.3          1    LIG   0.0000
  12 N12         -2.2172     2.8525     3.9074 N.4          1    LIG   1.0000
  13 C13         -2.4539     2.9740     5.3529 C.3          1    LIG   0.0000
  14 C14         -3.8483     2.4668     5.6824 C.3          1    LIG   0.0000
  15 C15         -4.1075     2.5865     7.1758 C.3          1    LIG   0.0000
  16 C16         -5.5204     2.1223     7.4955 C.3          1    LIG   0.0000
  17 C17         -6.5547     2.9274     6.7252 C.3          1    LIG   0.0000
  18 C18         -7.9549     2.4240     7.0408 C.3          1    LIG   0.0000
  19 C19         -9.0141     3.2256     6.2984 C.3          1    LIG   0.0000
  20 C20         -8.8857     4.7032     6.6381 C.3          1    LIG   0.0000
  21 C21         -7.4916     5.2349     6.3433 C.3          1    LIG   0.0000
  22 C22         -6.5120     4.3924     7.1449 C.3          1    LIG   0.0000
  23 C23         -6.2502     2.7241     5.2472 C.3          1    LIG   0.0000
  24 C24         -4.8720     3.2398     4.8646 C.3          1    LIG   0.0000
  25 C25         -0.8435     3.3054     3.6408 C.3          1    LIG   0.0000
  26 C26         -0.4363     3.0105     2.2052 C.3          1    LIG   0.0000
  27 N27          0.0510     0.0747    -0.0094 N.2          1    LIG   0.0000
  28 H           -2.8715     3.4140     3.4009 H            1    LIG   0.0000
  29 H            1.0476    -2.4262    -3.0785 H            1    LIG   0.0000
  30 H            0.2041    -2.7399    -1.7159 H            1    LIG   0.0000
  31 H            0.4798    -1.1952    -2.1681 H            1    LIG   0.0000
  32 H            2.7979    -1.7169     0.4111 H            1    LIG   0.0000
  33 H            1.2749    -2.3060     0.4190 H            1    LIG   0.0000
  34 H           -0.9911     3.1315    -0.4362 H            1    LIG   0.0000
  35 H           -1.9381     1.8012    -0.4498 H            1    LIG   0.0000
  36 H           -1.4377     0.5517     1.8501 H            1    LIG   0.0000
  37 H           -2.9656     1.0507     1.5615 H            1    LIG   0.0000
  38 H           -3.2460     1.1106     3.7236 H            1    LIG   0.0000
  39 H           -1.6485     0.9042     3.9920 H            1    LIG   0.0000
  40 H           -2.3755     3.9334     5.6240 H            1    LIG   0.0000
  41 H           -1.7760     2.4311     5.8485 H            1    LIG   0.0000
  42 H           -3.9028     1.5013     5.4277 H            1    LIG   0.0000
  43 H           -4.0009     3.5407     7.4553 H            1    LIG   0.0000
  44 H           -3.4516     2.0183     7.6726 H            1    LIG   0.0000
  45 H           -5.6096     1.1572     7.2493 H            1    LIG   0.0000
  46 H           -5.6856     2.2329     8.4755 H            1    LIG   0.0000
  47 H           -8.1156     2.5050     8.0244 H            1    LIG   0.0000
  48 H           -8.0241     1.4639     6.7697 H            1    LIG   0.0000
  49 H           -9.9217     2.9023     6.5664 H            1    LIG   0.0000
  50 H           -8.8932     3.1010     5.3136 H            1    LIG   0.0000
  51 H           -9.0805     4.8292     7.6109 H            1    LIG   0.0000
  52 H           -9.5494     5.2183     6.0958 H            1    LIG   0.0000
  53 H           -7.2936     5.1546     5.3664 H            1    LIG   0.0000
  54 H           -7.4250     6.1938     6.6191 H            1    LIG   0.0000
  55 H           -5.5873     4.7444     6.9998 H            1    LIG   0.0000
  56 H           -6.7455     4.4587     8.1149 H            1    LIG   0.0000
  57 H           -6.9369     3.2113     4.7076 H            1    LIG   0.0000
  58 H           -6.2963     1.7467     5.0410 H            1    LIG   0.0000
  59 H           -4.7111     3.0915     3.8888 H            1    LIG   0.0000
  60 H           -4.8045     4.2164     5.0689 H            1    LIG   0.0000
  61 H           -0.2179     2.8324     4.2611 H            1    LIG   0.0000
  62 H           -0.7884     4.2912     3.7996 H            1    LIG   0.0000
  63 H           -0.0803     3.8470     1.7885 H            1    LIG   0.0000
  64 H            0.2763     2.3089     2.2056 H            1    LIG   0.0000
@<TRIPOS>BOND
   1        1        2 1
   2        2        3 1
   3        3        4 1
   4        4        5 2
   5        5        6 1
   6        6        7 1
   7        7        8 1
   8        8        9 1
   9        9       10 1
  10       10       11 1
  11       11       12 1
  12       12       13 1
  13       13       14 1
  14       14       15 1
  15       15       16 1
  16       16       17 1
  17       17       18 1
  18       18       19 1
  19       19       20 1
  20       20       21 1
  21       21       22 1
  22       22       17 1
  23       17       23 1
  24       23       24 1
  25       24       14 1
  26       12       25 1
  27       25       26 1
  28       26        9 1
  29        7       27 2
  30       27        4 1
  31       12       28 1
  32        1       29 1
  33        1       30 1
  34        1       31 1
  35        3       32 1
  36        3       33 1
  37        8       34 1
  38        8       35 1
  39       10       36 1
  40       10       37 1
  41       11       38 1
  42       11       39 1
  43       13       40 1
  44       13       41 1
  45       14       42 1
  46       15       43 1
  47       15       44 1
  48       16       45 1
  49       16       46 1
  50       18       47 1
  51       18       48 1
  52       19       49 1
  53       19       50 1
  54       20       51 1
  55       20       52 1
  56       21       53 1
  57       21       54 1
  58       22       55 1
  59       22       56 1
  60       23       57 1
  61       23       58 1
  62       24       59 1
  63       24       60 1
  64       25       61 1
  65       25       62 1
  66       26       63 1
  67       26       64 1

@<TRIPOS>MOLECULE

  64   67
SMALL
USER_CHARGES
@<TRIPOS>ATOM
   1 C1           0.8605    -2.1196    -2.1453 C.3          1    LIG   0.0000
   2 O2           2.0675    -2.1160    -1.3973 O.3          1    LIG   0.0000
   3 C3           1.9111    -1.6938    -0.0505 C.3          1    LIG   0.0000
   4 C4           1.3633    -0.2769    -0.0243 C.2          1    LIG   0.0000
   5 N5           2.0732     0.8228    -0.0161 N.2          1    LIG   0.0000
   6 O6           1.2871     1.8145     0.0041 O.2          1    LIG   0.0000
   7 C7           0.0486     1.3846     0.0048 C.2          1    LIG   0.0000
   8 C8          -1.1905     2.2664     0.0241 C.3          1    LIG   0.0000
   9 N9          -1.5820     2.5310     1.4162 N.3          1    LIG   0.0000
  10 C10         -2.0997     1.2854     2.0032 C.3          1    LIG   0.0000
  11 C11         -2.3304     1.4434     3.4978 C.3          1    LIG   0.0000
  12 N12         -2.2172     2.8525     3.9074 N.4          1    LIG   1.0000
  13 C13         -2.4539     2.9740     5.3529 C.3          1    LIG   0.0000
  14 C14         -3.8484     2.4667     5.6825 C.3          1    LIG   0.0000
  15 C15         -4.8853     3.2880     4.9320 C.3          1    LIG   0.0000
  16 C16         -6.2572     2.7527     5.3067 C.3          1    LIG   0.0000
  17 C17         -6.5208     2.9007     6.7989 C.3          1    LIG   0.0000
  18 C18         -6.4492     4.3410     7.2837 C.3          1    LIG   0.0000
  19 C19         -7.4417     5.2273     6.5499 C.3          1    LIG   0.0000
  20 C20         -8.8338     4.7003     6.8484 C.3          1    LIG   0.0000
  21 C21         -8.9827     3.2459     6.4354 C.3          1    LIG   0.0000
  22 C22         -7.9197     2.3996     7.1219 C.3          1    LIG   0.0000
  23 C23         -5.4849     2.0490     7.5164 C.3          1    LIG   0.0000
  24 C24         -4.0706     2.4999     7.1867 C.3          1    LIG   0.0000
  25 C25         -0.8435     3.3054     3.6408 C.3          1    LIG   0.0000
  26 C26         -0.4363     3.0105     2.2052 C.3          1    LIG   0.0000
  27 N27          0.0510     0.0747    -0.0094 N.2          1    LIG   0.0000
  28 H           -2.8715     3.4140     3.4009 H            1    LIG   0.0000
  29 H            1.0476    -2.4262    -3.0785 H            1    LIG   0.0000
  30 H            0.2041    -2.7399    -1.7159 H            1    LIG   0.0000
  31 H            0.4798    -1.1952    -2.1681 H            1    LIG   0.0000
  32 H            2.7979    -1.7169     0.4111 H            1    LIG   0.0000
  33 H            1.2749    -2.3060     0.4190 H            1    LIG   0.0000
  34 H           -0.9911     3.1315    -0.4362 H            1    LIG   0.0000
  35 H           -1.9381     1.8012    -0.4498 H            1    LIG   0.0000
  36 H           -1.4377     0.5517     1.8501 H            1    LIG   0.0000
  37 H           -2.9656     1.0507     1.5615 H            1    LIG   0.0000
  38 H           -3.2460     1.1106     3.7236 H            1    LIG   0.0000
  39 H           -1.6485     0.9042     3.9920 H            1    LIG   0.0000
  40 H           -2.3755     3.9334     5.6240 H            1    LIG   0.0000
  41 H           -1.7760     2.4311     5.8485 H            1    LIG   0.0000
  42 H           -3.9178     1.5175     5.3757 H            1    LIG   0.0000
  43 H           -4.7423     3.1987     3.9463 H            1    LIG   0.0000
  44 H           -4.8120     4.2504     5.1937 H            1    LIG   0.0000
  45 H           -6.9543     3.2608     4.8009 H            1    LIG   0.0000
  46 H           -6.3070     1.7845     5.0617 H            1    LIG   0.0000
  47 H           -5.5252     4.6903     7.1283 H            1    LIG   0.0000
  48 H           -6.6543     4.3647     8.2622 H            1    LIG   0.0000
  49 H           -7.2676     5.1926     5.5658 H            1    LIG   0.0000
  50 H           -7.3582     6.1710     6.8701 H            1    LIG   0.0000
  51 H           -9.5028     5.2498     6.3480 H            1    LIG   0.0000
  52 H           -9.0063     4.7780     7.8304 H            1    LIG   0.0000
  53 H           -9.8895     2.9175     6.6999 H            1    LIG   0.0000
  54 H           -8.8769     3.1705     5.4439 H            1    LIG   0.0000
  55 H           -8.0599     2.4400     8.1112 H            1    LIG   0.0000
  56 H           -8.0064     1.4529     6.8114 H            1    LIG   0.0000
  57 H           -5.5963     1.0959     7.2353 H            1    LIG   0.0000
  58 H           -5.6287     2.1246     8.5031 H            1    LIG   0.0000
  59 H           -3.9346     3.4326     7.5206 H            1    LIG   0.0000
  60 H           -3.4164     1.8880     7.6312 H            1    LIG   0.0000
  61 H           -0.2179     2.8324     4.2611 H            1    LIG   0.0000
  62 H           -0.7884     4.2912     3.7996 H            1    LIG   0.0000
  63 H           -0.0803     3.8470     1.7885 H            1    LIG   0.0000
  64 H            0.2763     2.3089     2.2056 H            1    LIG   0.0000
@<TRIPOS>BOND
   1        1        2 1
   2        2        3 1
   3        3        4 1
   4        4        5 2
   5        5        6 1
   6        6        7 1
   7        7        8 1
   8        8        9 1
   9        9       10 1
  10       10       11 1
  11       11       12 1
  12       12       13 1
  13       13       14 1
  14       14       15 1
  15       15       16 1
  16       16       17 1
  17       17       18 1
  18       18       19 1
  19       19       20 1
  20       20       21 1
  21       21       22 1
  22       22       17 1
  23       17       23 1
  24       23       24 1
  25       24       14 1
  26       12       25 1
  27       25       26 1
  28       26        9 1
  29        7       27 2
  30       27        4 1
  31       12       28 1
  32        1       29 1
  33        1       30 1
  34        1       31 1
  35        3       32 1
  36        3       33 1
  37        8       34 1
  38        8       35 1
  39       10       36 1
  40       10       37 1
  41       11       38 1
  42       11       39 1
  43       13       40 1
  44       13       41 1
  45       14       42 1
  46       15       43 1
  47       15       44 1
  48       16       45 1
  49       16       46 1
  50       18       47 1
  51       18       48 1
  52       19       49 1
  53       19       50 1
  54       20       51 1
  55       20       52 1
  56       21       53 1
  57       21       54 1
  58       22       55 1
  59       22       56 1
  60       23       57 1
  61       23       58 1
  62       24       59 1
  63       24       60 1
  64       25       61 1
  65       25       62 1
  66       26       63 1
  67       26       64 1

@<TRIPOS>MOLECULE

  64   67
SMALL
USER_CHARGES
@<TRIPOS>ATOM
   1 C1           0.8605    -2.1196    -2.1453 C.3          1    LIG   0.0000
   2 O2           2.0675    -2.1160    -1.3973 O.3          1    LIG   0.0000
   3 C3           1.9111    -1.6938    -0.0505 C.3          1    LIG   0.0000
   4 C4           1.3633    -0.2769    -0.0243 C.2          1    LIG   0.0000
   5 N5           2.0732     0.8228    -0.0161 N.2          1    LIG   0.0000
   6 O6           1.2871     1.8145     0.0041 O.2          1    LIG   0.0000
   7 C7           0.0486     1.3846     0.0048 C.2          1    LIG   0.0000
   8 C8          -1.1905     2.2664     0.0241 C.3          1    LIG   0.0000
   9 N9          -1.5820     2.5310     1.4162 N.3          1    LIG   0.0000
  10 C10         -0.5804     3.4197     2.0250 C.3          1    LIG   0.0000
  11 C11         -1.0350     3.8924     3.3969 C.3          1    LIG   0.0000
  12 N12         -2.2195     3.1463     3.8509 N.4          1    LIG   1.0000
  13 C13         -2.6289     3.6185     5.1813 C.3          1    LIG   0.0000
  14 C14         -1.4924     3.4030     6.1673 C.3          1    LIG   0.0000
  15 C15         -1.9018     3.8873     7.5491 C.3          1    LIG   0.0000
  16 C16         -0.7801     3.6269     8.5430 C.3          1    LIG   0.0000
  17 C17         -0.4215     2.1505     8.5980 C.3          1    LIG   0.0000
  18 C18          0.7205     1.9226     9.5763 C.3          1    LIG   0.0000
  19 C19          1.0883     0.4488     9.6677 C.3          1    LIG   0.0000
  20 C20         -0.1305    -0.3709    10.0650 C.3          1    LIG   0.0000
  21 C21         -1.2951    -0.1565     9.1107 C.3          1    LIG   0.0000
  22 C22         -1.6030     1.3325     9.1071 C.3          1    LIG   0.0000
  23 C23          0.0117     1.7564     7.1925 C.3          1    LIG   0.0000
  24 C24         -1.1028     1.9325     6.1733 C.3          1    LIG   0.0000
  25 C25         -3.3258     3.4192     2.9209 C.3          1    LIG   0.0000
  26 C26         -2.9089     3.1639     1.4806 C.3          1    LIG   0.0000
  27 N27          0.0510     0.0747    -0.0094 N.2          1    LIG   0.0000
  28 H           -2.0226     2.1662     3.8768 H            1    LIG   0.0000
  29 H            1.0476    -2.4262    -3.0785 H            1    LIG   0.0000
  30 H            0.2041    -2.7399    -1.7159 H            1    LIG   0.0000
  31 H            0.4798    -1.1952    -2.1681 H            1    LIG   0.0000
  32 H            2.7979    -1.7169     0.4111 H            1    LIG   0.0000
  33 H            1.2749    -2.3060     0.4190 H            1    LIG   0.0000
  34 H           -0.9911     3.1315    -0.4362 H            1    LIG   0.0000
  35 H           -1.9381     1.8012    -0.4498 H            1    LIG   0.0000
  36 H           -0.4454     4.2144     1.4333 H            1    LIG   0.0000
  37 H            0.2828     2.9238     2.1193 H            1    LIG   0.0000
  38 H           -0.2921     3.7552     4.0520 H            1    LIG   0.0000
  39 H           -1.2611     4.8653     3.3483 H            1    LIG   0.0000
  40 H           -3.4337     3.1076     5.4833 H            1    LIG   0.0000
  41 H           -2.8503     4.5926     5.1356 H            1    LIG   0.0000
  42 H           -0.7041     3.9385     5.8643 H            1    LIG   0.0000
  43 H           -2.7239     3.3987     7.8415 H            1    LIG   0.0000
  44 H           -2.0920     4.8684     7.5135 H            1    LIG   0.0000
  45 H            0.0274     4.1480     8.2666 H            1    LIG   0.0000
  46 H           -1.0742     3.9246     9.4512 H            1    LIG   0.0000
  47 H            0.4429     2.2453    10.4812 H            1    LIG   0.0000
  48 H            1.5200     2.4389     9.2691 H            1    LIG   0.0000
  49 H            1.8056     0.3289    10.3541 H            1    LIG   0.0000
  50 H            1.4220     0.1355     8.7786 H            1    LIG   0.0000
  51 H           -0.4138    -0.1031    10.9859 H            1    LIG   0.0000
  52 H            0.1165    -1.3399    10.0609 H            1    LIG   0.0000
  53 H           -1.0441    -0.4570     8.1905 H            1    LIG   0.0000
  54 H           -2.0936    -0.6711     9.4232 H            1    LIG   0.0000
  55 H           -2.3917     1.4990     8.5153 H            1    LIG   0.0000
  56 H           -1.8193     1.6211    10.0398 H            1    LIG   0.0000
  57 H            0.2918     0.7964     7.1999 H            1    LIG   0.0000
  58 H            0.7869     2.3277     6.9231 H            1    LIG   0.0000
  59 H           -0.7812     1.6612     5.2661 H            1    LIG   0.0000
  60 H           -1.8905     1.3720     6.4291 H            1    LIG   0.0000
  61 H           -3.6033     4.3752     3.0157 H            1    LIG   0.0000
  62 H           -4.0970     2.8243     3.1477 H            1    LIG   0.0000
  63 H           -3.5795     2.5608     1.0486 H            1    LIG   0.0000
  64 H           -2.8791     4.0349     0.9901 H            1    LIG   0.0000
@<TRIPOS>BOND
   1        1        2 1
   2        2        3 1
   3        3        4 1
   4        4        5 2
   5        5        6 1
   6        6        7 1
   7        7        8 1
   8        8        9 1
   9        9       10 1
  10       10       11 1
  11       11       12 1
  12       12       13 1
  13       13       14 1
  14       14       15 1
  15       15       16 1
  16       16       17 1
  17       17       18 1
  18       18       19 1
  19       19       20 1
  20       20       21 1
  21       21       22 1
  22       22       17 1
  23       17       23 1
  24       23       24 1
  25       24       14 1
  26       12       25 1
  27       25       26 1
  28       26        9 1
  29        7       27 2
  30       27        4 1
  31       12       28 1
  32        1       29 1
  33        1       30 1
  34        1       31 1
  35        3       32 1
  36        3       33 1
  37        8       34 1
  38        8       35 1
  39       10       36 1
  40       10       37 1
  41       11       38 1
  42       11       39 1
  43       13       40 1
  44       13       41 1
  45       14       42 1
  46       15       43 1
  47       15       44 1
  48       16       45 1
  49       16       46 1
  50       18       47 1
  51       18       48 1
  52       19       49 1
  53       19       50 1
  54       20       51 1
  55       20       52 1
  56       21       53 1
  57       21       54 1
  58       22       55 1
  59       22       56 1
  60       23       57 1
  61       23       58 1
  62       24       59 1
  63       24       60 1
  64       25       61 1
  65       25       62 1
  66       26       63 1
  67       26       64 1

@<TRIPOS>MOLECULE

  64   67
SMALL
USER_CHARGES
@<TRIPOS>ATOM
   1 C1           0.8605    -2.1196    -2.1453 C.3          1    LIG   0.0000
   2 O2           2.0675    -2.1160    -1.3973 O.3          1    LIG   0.0000
   3 C3           1.9111    -1.6938    -0.0505 C.3          1    LIG   0.0000
   4 C4           1.3633    -0.2769    -0.0243 C.2          1    LIG   0.0000
   5 N5           2.0732     0.8228    -0.0161 N.2          1    LIG   0.0000
   6 O6           1.2871     1.8145     0.0041 O.2          1    LIG   0.0000
   7 C7           0.0486     1.3846     0.0048 C.2          1    LIG   0.0000
   8 C8          -1.1905     2.2664     0.0241 C.3          1    LIG   0.0000
   9 N9          -1.5820     2.5310     1.4162 N.3          1    LIG   0.0000
  10 C10         -0.5804     3.4197     2.0250 C.3          1    LIG   0.0000
  11 C11         -1.0350     3.8924     3.3969 C.3          1    LIG   0.0000
  12 N12         -2.2195     3.1463     3.8509 N.4          1    LIG   1.0000
  13 C13         -2.6289     3.6185     5.1813 C.3          1    LIG   0.0000
  14 C14         -1.4923     3.4029     6.1673 C.3          1    LIG   0.0000
  15 C15         -1.1499     1.9231     6.2421 C.3          1    LIG   0.0000
  16 C16         -0.0233     1.7605     7.2488 C.3          1    LIG   0.0000
  17 C17         -0.4491     2.2219     8.6358 C.3          1    LIG   0.0000
  18 C18         -1.6534     1.4674     9.1788 C.3          1    LIG   0.0000
  19 C19         -1.3900    -0.0275     9.2507 C.3          1    LIG   0.0000
  20 C20         -0.2311    -0.2424    10.2075 C.3          1    LIG   0.0000
  21 C21          1.0089     0.5156     9.7648 C.3          1    LIG   0.0000
  22 C22          0.6882     1.9966     9.6198 C.3          1    LIG   0.0000
  23 C23         -0.7590     3.7073     8.5307 C.3          1    LIG   0.0000
  24 C24         -1.8690     3.9732     7.5261 C.3          1    LIG   0.0000
  25 C25         -3.3258     3.4192     2.9209 C.3          1    LIG   0.0000
  26 C26         -2.9089     3.1639     1.4806 C.3          1    LIG   0.0000
  27 N27          0.0510     0.0747    -0.0094 N.2          1    LIG   0.0000
  28 H           -2.0226     2.1662     3.8768 H            1    LIG   0.0000
  29 H            1.0476    -2.4262    -3.0785 H            1    LIG   0.0000
  30 H            0.2041    -2.7399    -1.7159 H            1    LIG   0.0000
  31 H            0.4798    -1.1952    -2.1681 H            1    LIG   0.0000
  32 H            2.7979    -1.7169     0.4111 H            1    LIG   0.0000
  33 H            1.2749    -2.3060     0.4190 H            1    LIG   0.0000
  34 H           -0.9911     3.1315    -0.4362 H            1    LIG   0.0000
  35 H           -1.9381     1.8012    -0.4498 H            1    LIG   0.0000
  36 H           -0.4454     4.2144     1.4333 H            1    LIG   0.0000
  37 H            0.2828     2.9238     2.1193 H            1    LIG   0.0000
  38 H           -0.2921     3.7552     4.0520 H            1    LIG   0.0000
  39 H           -1.2611     4.8653     3.3483 H            1    LIG   0.0000
  40 H           -3.4337     3.1076     5.4833 H            1    LIG   0.0000
  41 H           -2.8503     4.5926     5.1356 H            1    LIG   0.0000
  42 H           -0.6885     3.8947     5.8324 H            1    LIG   0.0000
  43 H           -0.8545     1.5960     5.3445 H            1    LIG   0.0000
  44 H           -1.9504     1.4028     6.5397 H            1    LIG   0.0000
  45 H            0.2379     0.7962     7.2923 H            1    LIG   0.0000
  46 H            0.7607     2.3051     6.9509 H            1    LIG   0.0000
  47 H           -2.4364     1.6306     8.5785 H            1    LIG   0.0000
  48 H           -1.8611     1.8050    10.0968 H            1    LIG   0.0000
  49 H           -1.1529    -0.3762     8.3439 H            1    LIG   0.0000
  50 H           -2.2033    -0.5015     9.5879 H            1    LIG   0.0000
  51 H           -0.0183    -1.2188    10.2450 H            1    LIG   0.0000
  52 H           -0.4982     0.0757    11.1171 H            1    LIG   0.0000
  53 H            1.7304     0.3980    10.4472 H            1    LIG   0.0000
  54 H            1.3204     0.1563     8.8851 H            1    LIG   0.0000
  55 H            0.4237     2.3616    10.5125 H            1    LIG   0.0000
  56 H            1.5024     2.4757     9.2918 H            1    LIG   0.0000
  57 H            0.0659     4.1919     8.2398 H            1    LIG   0.0000
  58 H           -1.0447     4.0443     9.4278 H            1    LIG   0.0000
  59 H           -2.7130     3.5409     7.8437 H            1    LIG   0.0000
  60 H           -2.0106     4.9596     7.4430 H            1    LIG   0.0000
  61 H           -3.6033     4.3752     3.0157 H            1    LIG   0.0000
  62 H           -4.0970     2.8243     3.1477 H            1    LIG   0.0000
  63 H           -3.5795     2.5608     1.0486 H            1    LIG   0.0000
  64 H           -2.8791     4.0349     0.9901 H            1    LIG   0.0000
@<TRIPOS>BOND
   1        1        2 1
   2        2        3 1
   3        3        4 1
   4        4        5 2
   5        5        6 1
   6        6        7 1
   7        7        8 1
   8        8        9 1
   9        9       10 1
  10       10       11 1
  11       11       12 1
  12       12       13 1
  13       13       14 1
  14       14       15 1
  15       15       16 1
  16       16       17 1
  17       17       18 1
  18       18       19 1
  19       19       20 1
  20       20       21 1
  21       21       22 1
  22       22       17 1
  23       17       23 1
  24       23       24 1
  25       24       14 1
  26       12       25 1
  27       25       26 1
  28       26        9 1
  29        7       27 2
  30       27        4 1
  31       12       28 1
  32        1       29 1
  33        1       30 1
  34        1       31 1
  35        3       32 1
  36        3       33 1
  37        8       34 1
  38        8       35 1
  39       10       36 1
  40       10       37 1
  41       11       38 1
  42       11       39 1
  43       13       40 1
  44       13       41 1
  45       14       42 1
  46       15       43 1
  47       15       44 1
  48       16       45 1
  49       16       46 1
  50       18       47 1
  51       18       48 1
  52       19       49 1
  53       19       50 1
  54       20       51 1
  55       20       52 1
  56       21       53 1
  57       21       54 1
  58       22       55 1
  59       22       56 1
  60       23       57 1
  61       23       58 1
  62       24       59 1
  63       24       60 1
  64       25       61 1
  65       25       62 1
  66       26       63 1
  67       26       64 1

@<TRIPOS>MOLECULE

  64   67
SMALL
USER_CHARGES
@<TRIPOS>ATOM
   1 C1           0.8605    -2.1196    -2.1453 C.3          1    LIG   0.0000
   2 O2           2.0675    -2.1160    -1.3973 O.3          1    LIG   0.0000
   3 C3           1.9111    -1.6938    -0.0505 C.3          1    LIG   0.0000
   4 C4           1.3633    -0.2769    -0.0243 C.2          1    LIG   0.0000
   5 N5           2.0732     0.8228    -0.0161 N.2          1    LIG   0.0000
   6 O6           1.2871     1.8145     0.0041 O.2          1    LIG   0.0000
   7 C7           0.0486     1.3846     0.0048 C.2          1    LIG   0.0000
   8 C8          -1.1905     2.2664     0.0241 C.3          1    LIG   0.0000
   9 N9          -1.5820     2.5310     1.4162 N.3          1    LIG   0.0000
  10 C10         -2.6237     3.5696     1.4218 C.3          1    LIG   0.0000
  11 C11         -3.2131     3.7412     2.8129 C.3          1    LIG   0.0000
  12 N12         -2.4222     3.0144     3.8190 N.4          1    LIG   1.0000
  13 C13         -3.0102     3.2066     5.1523 C.3          1    LIG   0.0000
  14 C14         -3.0170     4.6875     5.4943 C.3          1    LIG   0.0000
  15 C15         -3.6231     4.9019     6.8721 C.3          1    LIG   0.0000
  16 C16         -3.5851     6.3796     7.2309 C.3          1    LIG   0.0000
  17 C17         -2.1642     6.9195     7.2016 C.3          1    LIG   0.0000
  18 C18         -2.1583     8.4035     7.5351 C.3          1    LIG   0.0000
  19 C19         -0.7451     8.9679     7.5333 C.3          1    LIG   0.0000
  20 C20          0.1283     8.1948     8.5103 C.3          1    LIG   0.0000
  21 C21          0.1350     6.7040     8.2094 C.3          1    LIG   0.0000
  22 C22         -1.3090     6.2305     8.2592 C.3          1    LIG   0.0000
  23 C23         -1.6466     6.7029     5.7862 C.3          1    LIG   0.0000
  24 C24         -1.5989     5.2312     5.4069 C.3          1    LIG   0.0000
  25 C25         -2.4816     1.5780     3.5083 C.3          1    LIG   0.0000
  26 C26         -2.0956     1.3121     2.0612 C.3          1    LIG   0.0000
  27 N27          0.0510     0.0747    -0.0094 N.2          1    LIG   0.0000
  28 H           -1.4740     3.3319     3.8096 H            1    LIG   0.0000
  29 H            1.0476    -2.4262    -3.0785 H            1    LIG   0.0000
  30 H            0.2041    -2.7399    -1.7159 H            1    LIG   0.0000
  31 H            0.4798    -1.1952    -2.1681 H            1    LIG   0.0000
  32 H            2.7979    -1.7169     0.4111 H            1    LIG   0.0000
  33 H            1.2749    -2.3060     0.4190 H            1    LIG   0.0000
  34 H           -0.9911     3.1315    -0.4362 H            1    LIG   0.0000
  35 H           -1.9381     1.8012    -0.4498 H            1    LIG   0.0000
  36 H           -3.3514     3.3065     0.7883 H            1    LIG   0.0000
  37 H           -2.2226     4.4369     1.1271 H            1    LIG   0.0000
  38 H           -3.2224     4.7137     3.0456 H            1    LIG   0.0000
  39 H           -4.1489     3.3887     2.8166 H            1    LIG   0.0000
  40 H           -2.4682     2.7103     5.8304 H            1    LIG   0.0000
  41 H           -3.9480     2.8593     5.1562 H            1    LIG   0.0000
  42 H           -3.5818     5.1656     4.8217 H            1    LIG   0.0000
  43 H           -3.1004     4.3829     7.5485 H            1    LIG   0.0000
  44 H           -4.5718     4.5856     6.8697 H            1    LIG   0.0000
  45 H           -4.1405     6.8887     6.5735 H            1    LIG   0.0000
  46 H           -3.9608     6.5013     8.1496 H            1    LIG   0.0000
  47 H           -2.5599     8.5348     8.4415 H            1    LIG   0.0000
  48 H           -2.7046     8.8919     6.8546 H            1    LIG   0.0000
  49 H           -0.7730     9.9300     7.8045 H            1    LIG   0.0000
  50 H           -0.3599     8.8919     6.6136 H            1    LIG   0.0000
  51 H           -0.2203     8.3359     9.4369 H            1    LIG   0.0000
  52 H            1.0647     8.5407     8.4502 H            1    LIG   0.0000
  53 H            0.5188     6.5393     7.3008 H            1    LIG   0.0000
  54 H            0.6788     6.2185     8.8940 H            1    LIG   0.0000
  55 H           -1.3321     5.2432     8.1020 H            1    LIG   0.0000
  56 H           -1.6857     6.4330     9.1631 H            1    LIG   0.0000
  57 H           -0.7236     7.0820     5.7199 H            1    LIG   0.0000
  58 H           -2.2496     7.1802     5.1469 H            1    LIG   0.0000
  59 H           -1.2519     5.1305     4.4745 H            1    LIG   0.0000
  60 H           -1.0039     4.7352     6.0394 H            1    LIG   0.0000
  61 H           -3.4131     1.2489     3.6632 H            1    LIG   0.0000
  62 H           -1.8505     1.0878     4.1095 H            1    LIG   0.0000
  63 H           -1.3874     0.6066     2.0366 H            1    LIG   0.0000
  64 H           -2.9012     0.9933     1.5618 H            1    LIG   0.0000
@<TRIPOS>BOND
   1        1        2 1
   2        2        3 1
   3        3        4 1
   4        4        5 2
   5        5        6 1
   6        6        7 1
   7        7        8 1
   8        8        9 1
   9        9       10 1
  10       10       11 1
  11       11       12 1
  12       12       13 1
  13       13       14 1
  14       14       15 1
  15       15       16 1
  16       16       17 1
  17       17       18 1
  18       18       19 1
  19       19       20 1
  20       20       21 1
  21       21       22 1
  22       22       17 1
  23       17       23 1
  24       23       24 1
  25       24       14 1
  26       12       25 1
  27       25       26 1
  28       26        9 1
  29        7       27 2
  30       27        4 1
  31       12       28 1
  32        1       29 1
  33        1       30 1
  34        1       31 1
  35        3       32 1
  36        3       33 1
  37        8       34 1
  38        8       35 1
  39       10       36 1
  40       10       37 1
  41       11       38 1
  42       11       39 1
  43       13       40 1
  44       13       41 1
  45       14       42 1
  46       15       43 1
  47       15       44 1
  48       16       45 1
  49       16       46 1
  50       18       47 1
  51       18       48 1
  52       19       49 1
  53       19       50 1
  54       20       51 1
  55       20       52 1
  56       21       53 1
  57       21       54 1
  58       22       55 1
  59       22       56 1
  60       23       57 1
  61       23       58 1
  62       24       59 1
  63       24       60 1
  64       25       61 1
  65       25       62 1
  66       26       63 1
  67       26       64 1

@<TRIPOS>MOLECULE

  64   67
SMALL
USER_CHARGES
@<TRIPOS>ATOM
   1 C1           0.8605    -2.1196    -2.1453 C.3          1    LIG   0.0000
   2 O2           2.0675    -2.1160    -1.3973 O.3          1    LIG   0.0000
   3 C3           1.9111    -1.6938    -0.0505 C.3          1    LIG   0.0000
   4 C4           1.3633    -0.2769    -0.0243 C.2          1    LIG   0.0000
   5 N5           2.0732     0.8228    -0.0161 N.2          1    LIG   0.0000
   6 O6           1.2871     1.8145     0.0041 O.2          1    LIG   0.0000
   7 C7           0.0486     1.3846     0.0048 C.2          1    LIG   0.0000
   8 C8          -1.1905     2.2664     0.0241 C.3          1    LIG   0.0000
   9 N9          -1.5973     2.5702    -1.3555 N.3          1    LIG   0.0000
  10 C10         -0.6023     3.4760    -1.9499 C.3          1    LIG   0.0000
  11 C11         -0.8580     3.6641    -3.4370 C.3          1    LIG   0.0000
  12 N12         -2.1605     3.1015    -3.8280 N.4          1    LIG   1.0000
  13 C13         -2.3827     3.3065    -5.2664 C.3          1    LIG   0.0000
  14 C14         -2.3668     4.7948    -5.5745 C.3          1    LIG   0.0000
  15 C15         -2.5956     5.0225    -7.0602 C.3          1    LIG   0.0000
  16 C16         -2.6263     6.5140    -7.3574 C.3          1    LIG   0.0000
  17 C17         -3.7095     7.2159    -6.5541 C.3          1    LIG   0.0000
  18 C18         -3.6988     8.7082    -6.8481 C.3          1    LIG   0.0000
  19 C19         -4.7875     9.4352    -6.0722 C.3          1    LIG   0.0000
  20 C20         -6.1484     8.8347    -6.3928 C.3          1    LIG   0.0000
  21 C21         -6.1882     7.3392    -6.1190 C.3          1    LIG   0.0000
  22 C22         -5.0882     6.7016    -6.9530 C.3          1    LIG   0.0000
  23 C23         -3.3872     6.9731    -5.0859 C.3          1    LIG   0.0000
  24 C24         -3.4153     5.4965    -4.7244 C.3          1    LIG   0.0000
  25 C25         -2.1331     1.6515    -3.5832 C.3          1    LIG   0.0000
  26 C26         -1.6916     1.3423    -2.1609 C.3          1    LIG   0.0000
  27 N27          0.0510     0.0747    -0.0094 N.2          1    LIG   0.0000
  28 H           -2.8947     3.5281    -3.2999 H            1    LIG   0.0000
  29 H            1.0476    -2.4262    -3.0785 H            1    LIG   0.0000
  30 H            0.2041    -2.7399    -1.7159 H            1    LIG   0.0000
  31 H            0.4798    -1.1952    -2.1681 H            1    LIG   0.0000
  32 H            2.7979    -1.7169     0.4111 H            1    LIG   0.0000
  33 H            1.2749    -2.3060     0.4190 H            1    LIG   0.0000
  34 H           -1.9329     1.7879     0.4929 H            1    LIG   0.0000
  35 H           -0.9859     3.1182     0.5065 H            1    LIG   0.0000
  36 H            0.3107     3.0888    -1.8213 H            1    LIG   0.0000
  37 H           -0.6549     4.3644    -1.4939 H            1    LIG   0.0000
  38 H           -0.8480     4.6414    -3.6486 H            1    LIG   0.0000
  39 H           -0.1356     3.2039    -3.9530 H            1    LIG   0.0000
  40 H           -3.2689     2.9221    -5.5249 H            1    LIG   0.0000
  41 H           -1.6581     2.8513    -5.7838 H            1    LIG   0.0000
  42 H           -1.4673     5.1590    -5.3328 H            1    LIG   0.0000
  43 H           -3.4679     4.6132    -7.3277 H            1    LIG   0.0000
  44 H           -1.8544     4.5963    -7.5788 H            1    LIG   0.0000
  45 H           -1.7387     6.9109    -7.1236 H            1    LIG   0.0000
  46 H           -2.8051     6.6482    -8.3321 H            1    LIG   0.0000
  47 H           -3.8484     8.8480    -7.8269 H            1    LIG   0.0000
  48 H           -2.8090     9.0842    -6.5898 H            1    LIG   0.0000
  49 H           -4.7848    10.4024    -6.3261 H            1    LIG   0.0000
  50 H           -4.6099     9.3474    -5.0920 H            1    LIG   0.0000
  51 H           -6.3513     8.9917    -7.3593 H            1    LIG   0.0000
  52 H           -6.8410     9.2849    -5.8293 H            1    LIG   0.0000
  53 H           -6.0272     7.1640    -5.1477 H            1    LIG   0.0000
  54 H           -7.0779     6.9660    -6.3821 H            1    LIG   0.0000
  55 H           -5.1150     5.7106    -6.8219 H            1    LIG   0.0000
  56 H           -5.2473     6.9148    -7.9170 H            1    LIG   0.0000
  57 H           -4.0611     7.4542    -4.5251 H            1    LIG   0.0000
  58 H           -2.4747     7.3339    -4.8932 H            1    LIG   0.0000
  59 H           -3.2024     5.3788    -3.7544 H            1    LIG   0.0000
  60 H           -4.3199     5.1157    -4.9156 H            1    LIG   0.0000
  61 H           -1.4943     1.2246    -4.2233 H            1    LIG   0.0000
  62 H           -3.0496     1.2787    -3.7286 H            1    LIG   0.0000
  63 H           -2.3566     0.7257    -1.7394 H            1    LIG   0.0000
  64 H           -0.7955     0.8991    -2.1864 H            1    LIG   0.0000
@<TRIPOS>BOND
   1        1        2 1
   2        2        3 1
   3        3        4 1
   4        4        5 2
   5        5        6 1
   6        6        7 1
   7        7        8 1
   8        8        9 1
   9        9       10 1
  10       10       11 1
  11       11       12 1
  12       12       13 1
  13       13       14 1
  14       14       15 1
  15       15       16 1
  16       16       17 1
  17       17       18 1
  18       18       19 1
  19       19       20 1
  20       20       21 1
  21       21       22 1
  22       22       17 1
  23       17       23 1
  24       23       24 1
  25       24       14 1
  26       12       25 1
  27       25       26 1
  28       26        9 1
  29        7       27 2
  30       27        4 1
  31       12       28 1
  32        1       29 1
  33        1       30 1
  34        1       31 1
  35        3       32 1
  36        3       33 1
  37        8       34 1
  38        8       35 1
  39       10       36 1
  40       10       37 1
  41       11       38 1
  42       11       39 1
  43       13       40 1
  44       13       41 1
  45       14       42 1
  46       15       43 1
  47       15       44 1
  48       16       45 1
  49       16       46 1
  50       18       47 1
  51       18       48 1
  52       19       49 1
  53       19       50 1
  54       20       51 1
  55       20       52 1
  56       21       53 1
  57       21       54 1
  58       22       55 1
  59       22       56 1
  60       23       57 1
  61       23       58 1
  62       24       59 1
  63       24       60 1
  64       25       61 1
  65       25       62 1
  66       26       63 1
  67       26       64 1

@<TRIPOS>MOLECULE

  64   67
SMALL
USER_CHARGES
@<TRIPOS>ATOM
   1 C1           0.8605    -2.1196    -2.1453 C.3          1    LIG   0.0000
   2 O2           2.0675    -2.1160    -1.3973 O.3          1    LIG   0.0000
   3 C3           1.9111    -1.6938    -0.0505 C.3          1    LIG   0.0000
   4 C4           1.3633    -0.2769    -0.0243 C.2          1    LIG   0.0000
   5 N5           2.0732     0.8228    -0.0161 N.2          1    LIG   0.0000
   6 O6           1.2871     1.8145     0.0041 O.2          1    LIG   0.0000
   7 C7           0.0486     1.3846     0.0048 C.2          1    LIG   0.0000
   8 C8          -1.1905     2.2664     0.0241 C.3          1    LIG   0.0000
   9 N9          -1.5973     2.5702    -1.3555 N.3          1    LIG   0.0000
  10 C10         -2.1216     1.3417    -1.9718 C.3          1    LIG   0.0000
  11 C11         -2.7453     1.6364    -3.3268 C.3          1    LIG   0.0000
  12 N12         -2.4376     3.0066    -3.7672 N.4          1    LIG   1.0000
  13 C13         -3.0453     3.2581    -5.0817 C.3          1    LIG   0.0000
  14 C14         -2.4900     2.2696    -6.0940 C.3          1    LIG   0.0000
  15 C15         -3.1101     2.5180    -7.4598 C.3          1    LIG   0.0000
  16 C16         -2.5174     1.5583    -8.4804 C.3          1    LIG   0.0000
  17 C17         -1.0065     1.7042    -8.5646 C.3          1    LIG   0.0000
  18 C18         -0.4375     0.7144    -9.5696 C.3          1    LIG   0.0000
  19 C19          1.0732     0.8513    -9.6902 C.3          1    LIG   0.0000
  20 C20          1.4404     2.2771   -10.0743 C.3          1    LIG   0.0000
  21 C21          0.8763     3.2930    -9.0930 C.3          1    LIG   0.0000
  22 C22         -0.6310     3.0959    -9.0612 C.3          1    LIG   0.0000
  23 C23         -0.4633     1.4034    -7.1743 C.3          1    LIG   0.0000
  24 C24         -0.9734     2.3835    -6.1298 C.3          1    LIG   0.0000
  25 C25         -3.0384     3.9485    -2.8106 C.3          1    LIG   0.0000
  26 C26         -2.6309     3.6171    -1.3831 C.3          1    LIG   0.0000
  27 N27          0.0510     0.0747    -0.0094 N.2          1    LIG   0.0000
  28 H           -1.4478     3.1421    -3.8116 H            1    LIG   0.0000
  29 H            1.0476    -2.4262    -3.0785 H            1    LIG   0.0000
  30 H            0.2041    -2.7399    -1.7159 H            1    LIG   0.0000
  31 H            0.4798    -1.1952    -2.1681 H            1    LIG   0.0000
  32 H            2.7979    -1.7169     0.4111 H            1    LIG   0.0000
  33 H            1.2749    -2.3060     0.4190 H            1    LIG   0.0000
  34 H           -1.9329     1.7879     0.4929 H            1    LIG   0.0000
  35 H           -0.9859     3.1182     0.5065 H            1    LIG   0.0000
  36 H           -2.8159     0.9450    -1.3713 H            1    LIG   0.0000
  37 H           -1.3725     0.6901    -2.0912 H            1    LIG   0.0000
  38 H           -2.3860     0.9892    -3.9991 H            1    LIG   0.0000
  39 H           -3.7374     1.5305    -3.2593 H            1    LIG   0.0000
  40 H           -2.8323     4.1902    -5.3745 H            1    LIG   0.0000
  41 H           -4.0370     3.1474    -5.0171 H            1    LIG   0.0000
  42 H           -2.7315     1.3450    -5.7996 H            1    LIG   0.0000
  43 H           -2.9237     3.4590    -7.7423 H            1    LIG   0.0000
  44 H           -4.0984     2.3757    -7.4059 H            1    LIG   0.0000
  45 H           -2.7396     0.6207    -8.2132 H            1    LIG   0.0000
  46 H           -2.9137     1.7519    -9.3779 H            1    LIG   0.0000
  47 H           -0.8520     0.8842   -10.4637 H            1    LIG   0.0000
  48 H           -0.6572    -0.2145    -9.2714 H            1    LIG   0.0000
  49 H            1.4071     0.2231   -10.3930 H            1    LIG   0.0000
  50 H            1.4968     0.6256    -8.8129 H            1    LIG   0.0000
  51 H            1.0756     2.4706   -10.9850 H            1    LIG   0.0000
  52 H            2.4367     2.3613   -10.0895 H            1    LIG   0.0000
  53 H            1.2613     3.1408    -8.1827 H            1    LIG   0.0000
  54 H            1.0945     4.2205    -9.3965 H            1    LIG   0.0000
  55 H           -1.0343     3.7777    -8.4508 H            1    LIG   0.0000
  56 H           -0.9937     3.2194    -9.9848 H            1    LIG   0.0000
  57 H            0.5351     1.4535    -7.2016 H            1    LIG   0.0000
  58 H           -0.7437     0.4799    -6.9126 H            1    LIG   0.0000
  59 H           -0.5931     2.1553    -5.2335 H            1    LIG   0.0000
  60 H           -0.7071     3.3150    -6.3774 H            1    LIG   0.0000
  61 H           -4.0343     3.8988    -2.8855 H            1    LIG   0.0000
  62 H           -2.7335     4.8753    -3.0301 H            1    LIG   0.0000
  63 H           -2.2718     4.4419    -0.9463 H            1    LIG   0.0000
  64 H           -3.4338     3.2964    -0.8806 H            1    LIG   0.0000
@<TRIPOS>BOND
   1        1        2 1
   2        2        3 1
   3        3        4 1
   4        4        5 2
   5        5        6 1
   6        6        7 1
   7        7        8 1
   8        8        9 1
   9        9       10 1
  10       10       11 1
  11       11       12 1
  12       12       13 1
  13       13       14 1
  14       14       15 1
  15       15       16 1
  16       16       17 1
  17       17       18 1
  18       18       19 1
  19       19       20 1
  20       20       21 1
  21       21       22 1
  22       22       17 1
  23       17       23 1
  24       23       24 1
  25       24       14 1
  26       12       25 1
  27       25       26 1
  28       26        9 1
  29        7       27 2
  30       27        4 1
  31       12       28 1
  32        1       29 1
  33        1       30 1
  34        1       31 1
  35        3       32 1
  36        3       33 1
  37        8       34 1
  38        8       35 1
  39       10       36 1
  40       10       37 1
  41       11       38 1
  42       11       39 1
  43       13       40 1
  44       13       41 1
  45       14       42 1
  46       15       43 1
  47       15       44 1
  48       16       45 1
  49       16       46 1
  50       18       47 1
  51       18       48 1
  52       19       49 1
  53       19       50 1
  54       20       51 1
  55       20       52 1
  56       21       53 1
  57       21       54 1
  58       22       55 1
  59       22       56 1
  60       23       57 1
  61       23       58 1
  62       24       59 1
  63       24       60 1
  64       25       61 1
  65       25       62 1
  66       26       63 1
  67       26       64 1

@<TRIPOS>MOLECULE

  64   67
SMALL
USER_CHARGES
@<TRIPOS>ATOM
   1 C1           0.8605    -2.1196    -2.1453 C.3          1    LIG   0.0000
   2 O2           2.0675    -2.1160    -1.3973 O.3          1    LIG   0.0000
   3 C3           1.9111    -1.6938    -0.0505 C.3          1    LIG   0.0000
   4 C4           1.3633    -0.2769    -0.0243 C.2          1    LIG   0.0000
   5 N5           2.0732     0.8228    -0.0161 N.2          1    LIG   0.0000
   6 O6           1.2871     1.8145     0.0041 O.2          1    LIG   0.0000
   7 C7           0.0486     1.3846     0.0048 C.2          1    LIG   0.0000
   8 C8          -1.1905     2.2664     0.0241 C.3          1    LIG   0.0000
   9 N9          -1.5973     2.5702    -1.3555 N.3          1    LIG   0.0000
  10 C10         -2.1216     1.3417    -1.9718 C.3          1    LIG   0.0000
  11 C11         -2.7453     1.6364    -3.3268 C.3          1    LIG   0.0000
  12 N12         -2.4376     3.0066    -3.7672 N.4          1    LIG   1.0000
  13 C13         -3.0453     3.2581    -5.0817 C.3          1    LIG   0.0000
  14 C14         -2.4899     2.2695    -6.0941 C.3          1    LIG   0.0000
  15 C15         -0.9814     2.4321    -6.1977 C.3          1    LIG   0.0000
  16 C16         -0.4798     1.4359    -7.2297 C.3          1    LIG   0.0000
  17 C17         -1.0838     1.7074    -8.6007 C.3          1    LIG   0.0000
  18 C18         -0.7765     3.1003    -9.1297 C.3          1    LIG   0.0000
  19 C19          0.7205     3.3424    -9.2290 C.3          1    LIG   0.0000
  20 C20          1.2831     2.3322   -10.2127 C.3          1    LIG   0.0000
  21 C21          0.9822     0.9059    -9.7846 C.3          1    LIG   0.0000
  22 C22         -0.5189     0.7213    -9.6113 C.3          1    LIG   0.0000
  23 C23         -2.5862     1.5119    -8.4674 C.3          1    LIG   0.0000
  24 C24         -3.1800     2.4586    -7.4362 C.3          1    LIG   0.0000
  25 C25         -3.0384     3.9485    -2.8106 C.3          1    LIG   0.0000
  26 C26         -2.6309     3.6171    -1.3831 C.3          1    LIG   0.0000
  27 N27          0.0510     0.0747    -0.0094 N.2          1    LIG   0.0000
  28 H           -1.4478     3.1421    -3.8116 H            1    LIG   0.0000
  29 H            1.0476    -2.4262    -3.0785 H            1    LIG   0.0000
  30 H            0.2041    -2.7399    -1.7159 H            1    LIG   0.0000
  31 H            0.4798    -1.1952    -2.1681 H            1    LIG   0.0000
  32 H            2.7979    -1.7169     0.4111 H            1    LIG   0.0000
  33 H            1.2749    -2.3060     0.4190 H            1    LIG   0.0000
  34 H           -1.9329     1.7879     0.4929 H            1    LIG   0.0000
  35 H           -0.9859     3.1182     0.5065 H            1    LIG   0.0000
  36 H           -2.8159     0.9450    -1.3713 H            1    LIG   0.0000
  37 H           -1.3725     0.6901    -2.0912 H            1    LIG   0.0000
  38 H           -2.3860     0.9892    -3.9991 H            1    LIG   0.0000
  39 H           -3.7374     1.5305    -3.2593 H            1    LIG   0.0000
  40 H           -2.8323     4.1902    -5.3745 H            1    LIG   0.0000
  41 H           -4.0370     3.1474    -5.0171 H            1    LIG   0.0000
  42 H           -2.6844     1.3442    -5.7687 H            1    LIG   0.0000
  43 H           -0.5571     2.2471    -5.3113 H            1    LIG   0.0000
  44 H           -0.7581     3.3632    -6.4863 H            1    LIG   0.0000
  45 H            0.5157     1.5058    -7.2928 H            1    LIG   0.0000
  46 H           -0.7315     0.5125    -6.9401 H            1    LIG   0.0000
  47 H           -1.1746     3.7777    -8.5111 H            1    LIG   0.0000
  48 H           -1.1824     3.1994   -10.0382 H            1    LIG   0.0000
  49 H            1.1462     3.2194    -8.3326 H            1    LIG   0.0000
  50 H            0.8950     4.2710    -9.5564 H            1    LIG   0.0000
  51 H            2.2743     2.4516   -10.2690 H            1    LIG   0.0000
  52 H            0.8763     2.4936   -11.1118 H            1    LIG   0.0000
  53 H            1.3153     0.2729   -10.4834 H            1    LIG   0.0000
  54 H            1.4417     0.7164    -8.9169 H            1    LIG   0.0000
  55 H           -0.9687     0.8648   -10.4928 H            1    LIG   0.0000
  56 H           -0.6981    -0.2096    -9.2932 H            1    LIG   0.0000
  57 H           -2.7679     0.5695    -8.1865 H            1    LIG   0.0000
  58 H           -3.0166     1.6845    -9.3534 H            1    LIG   0.0000
  59 H           -3.0545     3.4022    -7.7426 H            1    LIG   0.0000
  60 H           -4.1565     2.2678    -7.3358 H            1    LIG   0.0000
  61 H           -4.0343     3.8988    -2.8855 H            1    LIG   0.0000
  62 H           -2.7335     4.8753    -3.0301 H            1    LIG   0.0000
  63 H           -2.2718     4.4419    -0.9463 H            1    LIG   0.0000
  64 H           -3.4338     3.2964    -0.8806 H            1    LIG   0.0000
@<TRIPOS>BOND
   1        1        2 1
   2        2        3 1
   3        3        4 1
   4        4        5 2
   5        5        6 1
   6        6        7 1
   7        7        8 1
   8        8        9 1
   9        9       10 1
  10       10       11 1
  11       11       12 1
  12       12       13 1
  13       13       14 1
  14       14       15 1
  15       15       16 1
  16       16       17 1
  17       17       18 1
  18       18       19 1
  19       19       20 1
  20       20       21 1
  21       21       22 1
  22       22       17 1
  23       17       23 1
  24       23       24 1
  25       24       14 1
  26       12       25 1
  27       25       26 1
  28       26        9 1
  29        7       27 2
  30       27        4 1
  31       12       28 1
  32        1       29 1
  33        1       30 1
  34        1       31 1
  35        3       32 1
  36        3       33 1
  37        8       34 1
  38        8       35 1
  39       10       36 1
  40       10       37 1
  41       11       38 1
  42       11       39 1
  43       13       40 1
  44       13       41 1
  45       14       42 1
  46       15       43 1
  47       15       44 1
  48       16       45 1
  49       16       46 1
  50       18       47 1
  51       18       48 1
  52       19       49 1
  53       19       50 1
  54       20       51 1
  55       20       52 1
  56       21       53 1
  57       21       54 1
  58       22       55 1
  59       22       56 1
  60       23       57 1
  61       23       58 1
  62       24       59 1
  63       24       60 1
  64       25       61 1
  65       25       62 1
  66       26       63 1
  67       26       64 1

@<TRIPOS>MOLECULE

  64   67
SMALL
USER_CHARGES
@<TRIPOS>ATOM
   1 C1           3.0010    -1.3694     2.0424 C.3          1    LIG   0.0000
   2 O2           2.0962    -2.1545     1.2799 O.3          1    LIG   0.0000
   3 C3           1.9111    -1.6938    -0.0505 C.3          1    LIG   0.0000
   4 C4           1.3633    -0.2769    -0.0243 C.2          1    LIG   0.0000
   5 N5           2.0732     0.8228    -0.0161 N.2          1    LIG   0.0000
   6 O6           1.2871     1.8145     0.0041 O.2          1    LIG   0.0000
   7 C7           0.0486     1.3846     0.0048 C.2          1    LIG   0.0000
   8 C8          -1.1905     2.2664     0.0241 C.3          1    LIG   0.0000
   9 N9          -1.5973     2.5702    -1.3555 N.3          1    LIG   0.0000
  10 C10         -2.1216     1.3417    -1.9718 C.3          1    LIG   0.0000
  11 C11         -2.7453     1.6364    -3.3268 C.3          1    LIG   0.0000
  12 N12         -2.4376     3.0066    -3.7672 N.4          1    LIG   1.0000
  13 C13         -3.0453     3.2581    -5.0817 C.3          1    LIG   0.0000
  14 C14         -2.4897     2.2691    -6.0946 C.3          1    LIG   0.0000
  15 C15         -0.9799     2.4261    -6.2036 C.3          1    LIG   0.0000
  16 C16         -0.4273     1.4776    -7.2550 C.3          1    LIG   0.0000
  17 C17         -1.0834     1.7055    -8.6068 C.3          1    LIG   0.0000
  18 C18         -0.7515     3.0981    -9.1199 C.3          1    LIG   0.0000
  19 C19         -1.4378     3.3895   -10.4445 C.3          1    LIG   0.0000
  20 C20         -0.9078     2.3854   -11.4552 C.3          1    LIG   0.0000
  21 C21         -1.1551     0.9525   -11.0061 C.3          1    LIG   0.0000
  22 C22         -0.5401     0.7267    -9.6352 C.3          1    LIG   0.0000
  23 C23         -2.5755     1.4802    -8.4126 C.3          1    LIG   0.0000
  24 C24         -3.1738     2.4749    -7.4338 C.3          1    LIG   0.0000
  25 C25         -3.0384     3.9485    -2.8106 C.3          1    LIG   0.0000
  26 C26         -2.6309     3.6171    -1.3831 C.3          1    LIG   0.0000
  27 N27          0.0510     0.0747    -0.0094 N.2          1    LIG   0.0000
  28 H           -1.4478     3.1421    -3.8116 H            1    LIG   0.0000
  29 H            3.0804    -1.7520     2.9629 H            1    LIG   0.0000
  30 H            3.8985    -1.3728     1.6014 H            1    LIG   0.0000
  31 H            2.6613    -0.4307     2.0997 H            1    LIG   0.0000
  32 H            1.2648    -2.2924    -0.5237 H            1    LIG   0.0000
  33 H            2.7878    -1.7034    -0.5315 H            1    LIG   0.0000
  34 H           -1.9329     1.7879     0.4929 H            1    LIG   0.0000
  35 H           -0.9859     3.1182     0.5065 H            1    LIG   0.0000
  36 H           -2.8159     0.9450    -1.3713 H            1    LIG   0.0000
  37 H           -1.3725     0.6901    -2.0912 H            1    LIG   0.0000
  38 H           -2.3860     0.9892    -3.9991 H            1    LIG   0.0000
  39 H           -3.7374     1.5305    -3.2593 H            1    LIG   0.0000
  40 H           -2.8323     4.1902    -5.3745 H            1    LIG   0.0000
  41 H           -4.0370     3.1474    -5.0171 H            1    LIG   0.0000
  42 H           -2.6897     1.3427    -5.7756 H            1    LIG   0.0000
  43 H           -0.5616     2.2186    -5.3192 H            1    LIG   0.0000
  44 H           -0.7636     3.3677    -6.4619 H            1    LIG   0.0000
  45 H            0.5577     1.6267    -7.3422 H            1    LIG   0.0000
  46 H           -0.5976     0.5358    -6.9653 H            1    LIG   0.0000
  47 H            0.2380     3.1697    -9.2453 H            1    LIG   0.0000
  48 H           -1.0515     3.7720    -8.4447 H            1    LIG   0.0000
  49 H           -1.2261     4.3202   -10.7427 H            1    LIG   0.0000
  50 H           -2.4278     3.2877   -10.3472 H            1    LIG   0.0000
  51 H            0.0761     2.5253   -11.5659 H            1    LIG   0.0000
  52 H           -1.3663     2.5343   -12.3313 H            1    LIG   0.0000
  53 H           -2.1399     0.7849   -10.9593 H            1    LIG   0.0000
  54 H           -0.7407     0.3228   -11.6632 H            1    LIG   0.0000
  55 H           -0.7470    -0.2050    -9.3367 H            1    LIG   0.0000
  56 H            0.4509     0.8432    -9.7015 H            1    LIG   0.0000
  57 H           -2.7202     0.5547    -8.0625 H            1    LIG   0.0000
  58 H           -3.0352     1.5784    -9.2953 H            1    LIG   0.0000
  59 H           -3.0168     3.4081    -7.7571 H            1    LIG   0.0000
  60 H           -4.1567     2.3147    -7.3428 H            1    LIG   0.0000
  61 H           -4.0343     3.8988    -2.8855 H            1    LIG   0.0000
  62 H           -2.7335     4.8753    -3.0301 H            1    LIG   0.0000
  63 H           -2.2718     4.4419    -0.9463 H            1    LIG   0.0000
  64 H           -3.4338     3.2964    -0.8806 H            1    LIG   0.0000
@<TRIPOS>BOND
   1        1        2 1
   2        2        3 1
   3        3        4 1
   4        4        5 2
   5        5        6 1
   6        6        7 1
   7        7        8 1
   8        8        9 1
   9        9       10 1
  10       10       11 1
  11       11       12 1
  12       12       13 1
  13       13       14 1
  14       14       15 1
  15       15       16 1
  16       16       17 1
  17       17       18 1
  18       18       19 1
  19       19       20 1
  20       20       21 1
  21       21       22 1
  22       22       17 1
  23       17       23 1
  24       23       24 1
  25       24       14 1
  26       12       25 1
  27       25       26 1
  28       26        9 1
  29        7       27 2
  30       27        4 1
  31       12       28 1
  32        1       29 1
  33        1       30 1
  34        1       31 1
  35        3       32 1
  36        3       33 1
  37        8       34 1
  38        8       35 1
  39       10       36 1
  40       10       37 1
  41       11       38 1
  42       11       39 1
  43       13       40 1
  44       13       41 1
  45       14       42 1
  46       15       43 1
  47       15       44 1
  48       16       45 1
  49       16       46 1
  50       18       47 1
  51       18       48 1
  52       19       49 1
  53       19       50 1
  54       20       51 1
  55       20       52 1
  56       21       53 1
  57       21       54 1
  58       22       55 1
  59       22       56 1
  60       23       57 1
  61       23       58 1
  62       24       59 1
  63       24       60 1
  64       25       61 1
  65       25       62 1
  66       26       63 1
  67       26       64 1

@<TRIPOS>MOLECULE

  64   67
SMALL
USER_CHARGES
@<TRIPOS>ATOM
   1 C1           0.8605    -2.1196    -2.1453 C.3          1    LIG   0.0000
   2 O2           2.0675    -2.1160    -1.3973 O.3          1    LIG   0.0000
   3 C3           1.9111    -1.6938    -0.0505 C.3          1    LIG   0.0000
   4 C4           1.3633    -0.2769    -0.0243 C.2          1    LIG   0.0000
   5 N5           2.0732     0.8228    -0.0161 N.2          1    LIG   0.0000
   6 O6           1.2871     1.8145     0.0041 O.2          1    LIG   0.0000
   7 C7           0.0486     1.3846     0.0048 C.2          1    LIG   0.0000
   8 C8          -1.1905     2.2664     0.0241 C.3          1    LIG   0.0000
   9 N9          -1.5973     2.5702    -1.3555 N.3          1    LIG   0.0000
  10 C10         -2.9196     3.2139    -1.3243 C.3          1    LIG   0.0000
  11 C11         -3.3035     3.7349    -2.7002 C.3          1    LIG   0.0000
  12 N12         -2.3787     3.2407    -3.7330 N.4          1    LIG   1.0000
  13 C13         -2.7804     3.7529    -5.0509 C.3          1    LIG   0.0000
  14 C14         -4.1886     3.2790    -5.3709 C.3          1    LIG   0.0000
  15 C15         -4.6180     3.8016    -6.7325 C.3          1    LIG   0.0000
  16 C16         -6.0090     3.2867    -7.0703 C.3          1    LIG   0.0000
  17 C17         -6.0532     1.7671    -7.0625 C.3          1    LIG   0.0000
  18 C18         -7.4601     1.2802    -7.3741 C.3          1    LIG   0.0000
  19 C19         -7.5306    -0.2398    -7.3932 C.3          1    LIG   0.0000
  20 C20         -6.5345    -0.7972    -8.3993 C.3          1    LIG   0.0000
  21 C21         -5.1178    -0.3194    -8.1206 C.3          1    LIG   0.0000
  22 C22         -5.1442     1.2006    -8.1475 C.3          1    LIG   0.0000
  23 C23         -5.6499     1.3283    -5.6613 C.3          1    LIG   0.0000
  24 C24         -4.2362     1.7599    -5.3049 C.3          1    LIG   0.0000
  25 C25         -1.0348     3.7630    -3.4423 C.3          1    LIG   0.0000
  26 C26         -0.6274     3.4642    -2.0076 C.3          1    LIG   0.0000
  27 N27          0.0510     0.0747    -0.0094 N.2          1    LIG   0.0000
  28 H           -2.3680     2.2408    -3.7386 H            1    LIG   0.0000
  29 H            1.0476    -2.4262    -3.0785 H            1    LIG   0.0000
  30 H            0.2041    -2.7399    -1.7159 H            1    LIG   0.0000
  31 H            0.4798    -1.1952    -2.1681 H            1    LIG   0.0000
  32 H            2.7979    -1.7169     0.4111 H            1    LIG   0.0000
  33 H            1.2749    -2.3060     0.4190 H            1    LIG   0.0000
  34 H           -1.9329     1.7879     0.4929 H            1    LIG   0.0000
  35 H           -0.9859     3.1182     0.5065 H            1    LIG   0.0000
  36 H           -2.8962     3.9782    -0.6798 H            1    LIG   0.0000
  37 H           -3.6015     2.5465    -1.0252 H            1    LIG   0.0000
  38 H           -4.2300     3.4284    -2.9183 H            1    LIG   0.0000
  39 H           -3.2768     4.7345    -2.6898 H            1    LIG   0.0000
  40 H           -2.1481     3.4134    -5.7473 H            1    LIG   0.0000
  41 H           -2.7594     4.7526    -5.0405 H            1    LIG   0.0000
  42 H           -4.8113     3.6460    -4.6798 H            1    LIG   0.0000
  43 H           -3.9707     3.4879    -7.4272 H            1    LIG   0.0000
  44 H           -4.6298     4.8014    -6.7152 H            1    LIG   0.0000
  45 H           -6.6582     3.6349    -6.3941 H            1    LIG   0.0000
  46 H           -6.2660     3.6153    -7.9792 H            1    LIG   0.0000
  47 H           -7.7343     1.6298    -8.2700 H            1    LIG   0.0000
  48 H           -8.0863     1.6261    -6.6754 H            1    LIG   0.0000
  49 H           -8.4542    -0.5248    -7.6496 H            1    LIG   0.0000
  50 H           -7.3136    -0.5924    -6.4829 H            1    LIG   0.0000
  51 H           -6.8011    -0.5005    -9.3163 H            1    LIG   0.0000
  52 H           -6.5535    -1.7960    -8.3535 H            1    LIG   0.0000
  53 H           -4.8178    -0.6414    -7.2227 H            1    LIG   0.0000
  54 H           -4.4953    -0.6640    -8.8233 H            1    LIG   0.0000
  55 H           -4.2159     1.5436    -8.0044 H            1    LIG   0.0000
  56 H           -5.4775     1.5034    -9.0404 H            1    LIG   0.0000
  57 H           -5.7045     0.3312    -5.6086 H            1    LIG   0.0000
  58 H           -6.2849     1.7322    -5.0028 H            1    LIG   0.0000
  59 H           -4.0081     1.4514    -4.3814 H            1    LIG   0.0000
  60 H           -3.5860     1.3697    -5.9567 H            1    LIG   0.0000
  61 H           -1.0321     4.7530    -3.5828 H            1    LIG   0.0000
  62 H           -0.3776     3.3363    -4.0636 H            1    LIG   0.0000
  63 H            0.2714     3.0260    -2.0080 H            1    LIG   0.0000
  64 H           -0.5796     4.3224    -1.4964 H            1    LIG   0.0000
@<TRIPOS>BOND
   1        1        2 1
   2        2        3 1
   3        3        4 1
   4        4        5 2
   5        5        6 1
   6        6        7 1
   7        7        8 1
   8        8        9 1
   9        9       10 1
  10       10       11 1
  11       11       12 1
  12       12       13 1
  13       13       14 1
  14       14       15 1
  15       15       16 1
  16       16       17 1
  17       17       18 1
  18       18       19 1
  19       19       20 1
  20       20       21 1
  21       21       22 1
  22       22       17 1
  23       17       23 1
  24       23       24 1
  25       24       14 1
  26       12       25 1
  27       25       26 1
  28       26        9 1
  29        7       27 2
  30       27        4 1
  31       12       28 1
  32        1       29 1
  33        1       30 1
  34        1       31 1
  35        3       32 1
  36        3       33 1
  37        8       34 1
  38        8       35 1
  39       10       36 1
  40       10       37 1
  41       11       38 1
  42       11       39 1
  43       13       40 1
  44       13       41 1
  45       14       42 1
  46       15       43 1
  47       15       44 1
  48       16       45 1
  49       16       46 1
  50       18       47 1
  51       18       48 1
  52       19       49 1
  53       19       50 1
  54       20       51 1
  55       20       52 1
  56       21       53 1
  57       21       54 1
  58       22       55 1
  59       22       56 1
  60       23       57 1
  61       23       58 1
  62       24       59 1
  63       24       60 1
  64       25       61 1
  65       25       62 1
  66       26       63 1
  67       26       64 1

@<TRIPOS>MOLECULE

  64   67
SMALL
USER_CHARGES
@<TRIPOS>ATOM
   1 C1           3.0010    -1.3694     2.0424 C.3          1    LIG   0.0000
   2 O2           2.0962    -2.1545     1.2799 O.3          1    LIG   0.0000
   3 C3           1.9111    -1.6938    -0.0505 C.3          1    LIG   0.0000
   4 C4           1.3633    -0.2769    -0.0243 C.2          1    LIG   0.0000
   5 N5           2.0732     0.8228    -0.0161 N.2          1    LIG   0.0000
   6 O6           1.2871     1.8145     0.0041 O.2          1    LIG   0.0000
   7 C7           0.0486     1.3846     0.0048 C.2          1    LIG   0.0000
   8 C8          -1.1905     2.2664     0.0241 C.3          1    LIG   0.0000
   9 N9          -1.5973     2.5702    -1.3555 N.3          1    LIG   0.0000
  10 C10         -2.9196     3.2139    -1.3243 C.3          1    LIG   0.0000
  11 C11         -3.3035     3.7349    -2.7002 C.3          1    LIG   0.0000
  12 N12         -2.3787     3.2407    -3.7330 N.4          1    LIG   1.0000
  13 C13         -2.7804     3.7529    -5.0509 C.3          1    LIG   0.0000
  14 C14         -4.1880     3.2792    -5.3708 C.3          1    LIG   0.0000
  15 C15         -4.6157     3.8017    -6.7307 C.3          1    LIG   0.0000
  16 C16         -6.0171     3.2823    -7.0060 C.3          1    LIG   0.0000
  17 C17         -6.0594     1.7617    -7.0458 C.3          1    LIG   0.0000
  18 C18         -7.4666     1.2936    -7.3719 C.3          1    LIG   0.0000
  19 C19         -7.8919     1.7348    -8.7625 C.3          1    LIG   0.0000
  20 C20         -6.9038     1.2282    -9.8018 C.3          1    LIG   0.0000
  21 C21         -5.4789     1.6627    -9.4965 C.3          1    LIG   0.0000
  22 C22         -5.1409     1.1641    -8.1008 C.3          1    LIG   0.0000
  23 C23         -5.6476     1.2729    -5.6677 C.3          1    LIG   0.0000
  24 C24         -4.2546     1.7624    -5.2998 C.3          1    LIG   0.0000
  25 C25         -1.0348     3.7630    -3.4423 C.3          1    LIG   0.0000
  26 C26         -0.6274     3.4642    -2.0076 C.3          1    LIG   0.0000
  27 N27          0.0510     0.0747    -0.0094 N.2          1    LIG   0.0000
  28 H           -2.3680     2.2408    -3.7386 H            1    LIG   0.0000
  29 H            3.0804    -1.7520     2.9629 H            1    LIG   0.0000
  30 H            3.8985    -1.3728     1.6014 H            1    LIG   0.0000
  31 H            2.6613    -0.4307     2.0997 H            1    LIG   0.0000
  32 H            1.2648    -2.2924    -0.5237 H            1    LIG   0.0000
  33 H            2.7878    -1.7034    -0.5315 H            1    LIG   0.0000
  34 H           -1.9329     1.7879     0.4929 H            1    LIG   0.0000
  35 H           -0.9859     3.1182     0.5065 H            1    LIG   0.0000
  36 H           -2.8962     3.9782    -0.6798 H            1    LIG   0.0000
  37 H           -3.6015     2.5465    -1.0252 H            1    LIG   0.0000
  38 H           -4.2300     3.4284    -2.9183 H            1    LIG   0.0000
  39 H           -3.2768     4.7345    -2.6898 H            1    LIG   0.0000
  40 H           -2.1481     3.4134    -5.7473 H            1    LIG   0.0000
  41 H           -2.7594     4.7526    -5.0405 H            1    LIG   0.0000
  42 H           -4.8088     3.6530    -4.6817 H            1    LIG   0.0000
  43 H           -3.9863     3.4732    -7.4350 H            1    LIG   0.0000
  44 H           -4.6180     4.8017    -6.7259 H            1    LIG   0.0000
  45 H           -6.6291     3.6041    -6.2836 H            1    LIG   0.0000
  46 H           -6.3265     3.6378    -7.8879 H            1    LIG   0.0000
  47 H           -8.1006     1.6781    -6.7009 H            1    LIG   0.0000
  48 H           -7.4961     0.2952    -7.3245 H            1    LIG   0.0000
  49 H           -7.9234     2.7337    -8.7966 H            1    LIG   0.0000
  50 H           -8.7995     1.3656    -8.9626 H            1    LIG   0.0000
  51 H           -7.1655     1.5875   -10.6975 H            1    LIG   0.0000
  52 H           -6.9392     0.2290    -9.8201 H            1    LIG   0.0000
  53 H           -4.8496     1.2640   -10.1637 H            1    LIG   0.0000
  54 H           -5.4112     2.6599    -9.5290 H            1    LIG   0.0000
  55 H           -5.2325     0.1684    -8.0824 H            1    LIG   0.0000
  56 H           -4.1969     1.4160    -7.8875 H            1    LIG   0.0000
  57 H           -5.6535     0.2730    -5.6618 H            1    LIG   0.0000
  58 H           -6.3015     1.6141    -4.9924 H            1    LIG   0.0000
  59 H           -4.0367     1.4664    -4.3698 H            1    LIG   0.0000
  60 H           -3.5899     1.3735    -5.9378 H            1    LIG   0.0000
  61 H           -1.0321     4.7530    -3.5828 H            1    LIG   0.0000
  62 H           -0.3776     3.3363    -4.0636 H            1    LIG   0.0000
  63 H            0.2714     3.0260    -2.0080 H            1    LIG   0.0000
  64 H           -0.5796     4.3224    -1.4964 H            1    LIG   0.0000
@<TRIPOS>BOND
   1        1        2 1
   2        2        3 1
   3        3        4 1
   4        4        5 2
   5        5        6 1
   6        6        7 1
   7        7        8 1
   8        8        9 1
   9        9       10 1
  10       10       11 1
  11       11       12 1
  12       12       13 1
  13       13       14 1
  14       14       15 1
  15       15       16 1
  16       16       17 1
  17       17       18 1
  18       18       19 1
  19       19       20 1
  20       20       21 1
  21       21       22 1
  22       22       17 1
  23       17       23 1
  24       23       24 1
  25       24       14 1
  26       12       25 1
  27       25       26 1
  28       26        9 1
  29        7       27 2
  30       27        4 1
  31       12       28 1
  32        1       29 1
  33        1       30 1
  34        1       31 1
  35        3       32 1
  36        3       33 1
  37        8       34 1
  38        8       35 1
  39       10       36 1
  40       10       37 1
  41       11       38 1
  42       11       39 1
  43       13       40 1
  44       13       41 1
  45       14       42 1
  46       15       43 1
  47       15       44 1
  48       16       45 1
  49       16       46 1
  50       18       47 1
  51       18       48 1
  52       19       49 1
  53       19       50 1
  54       20       51 1
  55       20       52 1
  56       21       53 1
  57       21       54 1
  58       22       55 1
  59       22       56 1
  60       23       57 1
  61       23       58 1
  62       24       59 1
  63       24       60 1
  64       25       61 1
  65       25       62 1
  66       26       63 1
  67       26       64 1

@<TRIPOS>MOLECULE

  64   67
SMALL
USER_CHARGES
@<TRIPOS>ATOM
   1 C1           0.8605    -2.1196    -2.1453 C.3          1    LIG   0.0000
   2 O2           2.0675    -2.1160    -1.3973 O.3          1    LIG   0.0000
   3 C3           1.9111    -1.6938    -0.0505 C.3          1    LIG   0.0000
   4 C4           1.3633    -0.2769    -0.0243 C.2          1    LIG   0.0000
   5 N5           2.0732     0.8228    -0.0161 N.2          1    LIG   0.0000
   6 O6           1.2871     1.8145     0.0041 O.2          1    LIG   0.0000
   7 C7           0.0486     1.3846     0.0048 C.2          1    LIG   0.0000
   8 C8          -1.1905     2.2664     0.0241 C.3          1    LIG   0.0000
   9 N9          -1.5973     2.5702    -1.3555 N.3          1    LIG   0.0000
  10 C10         -2.9196     3.2139    -1.3243 C.3          1    LIG   0.0000
  11 C11         -3.3035     3.7349    -2.7002 C.3          1    LIG   0.0000
  12 N12         -2.3787     3.2407    -3.7330 N.4          1    LIG   1.0000
  13 C13         -2.7804     3.7529    -5.0509 C.3          1    LIG   0.0000
  14 C14         -4.1888     3.2790    -5.3709 C.3          1    LIG   0.0000
  15 C15         -4.2284     1.7588    -5.3884 C.3          1    LIG   0.0000
  16 C16         -5.6488     1.3382    -5.7269 C.3          1    LIG   0.0000
  17 C17         -6.0624     1.8417    -7.1030 C.3          1    LIG   0.0000
  18 C18         -5.1631     1.3412    -8.2234 C.3          1    LIG   0.0000
  19 C19         -5.1315    -0.1771    -8.2781 C.3          1    LIG   0.0000
  20 C20         -6.5445    -0.6543    -8.5618 C.3          1    LIG   0.0000
  21 C21         -7.5242    -0.1605    -7.5109 C.3          1    LIG   0.0000
  22 C22         -7.4685     1.3581    -7.4217 C.3          1    LIG   0.0000
  23 C23         -6.0364     3.3613    -7.0428 C.3          1    LIG   0.0000
  24 C24         -4.6511     3.8793    -6.6897 C.3          1    LIG   0.0000
  25 C25         -1.0348     3.7630    -3.4423 C.3          1    LIG   0.0000
  26 C26         -0.6274     3.4642    -2.0076 C.3          1    LIG   0.0000
  27 N27          0.0510     0.0747    -0.0094 N.2          1    LIG   0.0000
  28 H           -2.3680     2.2408    -3.7386 H            1    LIG   0.0000
  29 H            1.0476    -2.4262    -3.0785 H            1    LIG   0.0000
  30 H            0.2041    -2.7399    -1.7159 H            1    LIG   0.0000
  31 H            0.4798    -1.1952    -2.1681 H            1    LIG   0.0000
  32 H            2.7979    -1.7169     0.4111 H            1    LIG   0.0000
  33 H            1.2749    -2.3060     0.4190 H            1    LIG   0.0000
  34 H           -1.9329     1.7879     0.4929 H            1    LIG   0.0000
  35 H           -0.9859     3.1182     0.5065 H            1    LIG   0.0000
  36 H           -2.8962     3.9782    -0.6798 H            1    LIG   0.0000
  37 H           -3.6015     2.5465    -1.0252 H            1    LIG   0.0000
  38 H           -4.2300     3.4284    -2.9183 H            1    LIG   0.0000
  39 H           -3.2768     4.7345    -2.6898 H            1    LIG   0.0000
  40 H           -2.1481     3.4134    -5.7473 H            1    LIG   0.0000
  41 H           -2.7594     4.7526    -5.0405 H            1    LIG   0.0000
  42 H           -4.8002     3.6007    -4.6480 H            1    LIG   0.0000
  43 H           -3.9720     1.4010    -4.4906 H            1    LIG   0.0000
  44 H           -3.5958     1.4094    -6.0796 H            1    LIG   0.0000
  45 H           -5.7044     0.3398    -5.7152 H            1    LIG   0.0000
  46 H           -6.2721     1.7148    -5.0415 H            1    LIG   0.0000
  47 H           -4.2348     1.6799    -8.0704 H            1    LIG   0.0000
  48 H           -5.5060     1.6904    -9.0954 H            1    LIG   0.0000
  49 H           -4.8169    -0.5437    -7.4025 H            1    LIG   0.0000
  50 H           -4.5166    -0.4796    -9.0064 H            1    LIG   0.0000
  51 H           -6.5537    -1.6543    -8.5695 H            1    LIG   0.0000
  52 H           -6.8290    -0.3115    -9.4571 H            1    LIG   0.0000
  53 H           -8.4498    -0.4440    -7.7616 H            1    LIG   0.0000
  54 H           -7.2841    -0.5536    -6.6233 H            1    LIG   0.0000
  55 H           -7.7560     1.7466    -8.2972 H            1    LIG   0.0000
  56 H           -8.0898     1.6651    -6.7007 H            1    LIG   0.0000
  57 H           -6.6861     3.6705    -6.3484 H            1    LIG   0.0000
  58 H           -6.3027     3.7267    -7.9348 H            1    LIG   0.0000
  59 H           -4.0086     3.6246    -7.4123 H            1    LIG   0.0000
  60 H           -4.6818     4.8754    -6.6068 H            1    LIG   0.0000
  61 H           -1.0321     4.7530    -3.5828 H            1    LIG   0.0000
  62 H           -0.3776     3.3363    -4.0636 H            1    LIG   0.0000
  63 H            0.2714     3.0260    -2.0080 H            1    LIG   0.0000
  64 H           -0.5796     4.3224    -1.4964 H            1    LIG   0.0000
@<TRIPOS>BOND
   1        1        2 1
   2        2        3 1
   3        3        4 1
   4        4        5 2
   5        5        6 1
   6        6        7 1
   7        7        8 1
   8        8        9 1
   9        9       10 1
  10       10       11 1
  11       11       12 1
  12       12       13 1
  13       13       14 1
  14       14       15 1
  15       15       16 1
  16       16       17 1
  17       17       18 1
  18       18       19 1
  19       19       20 1
  20       20       21 1
  21       21       22 1
  22       22       17 1
  23       17       23 1
  24       23       24 1
  25       24       14 1
  26       12       25 1
  27       25       26 1
  28       26        9 1
  29        7       27 2
  30       27        4 1
  31       12       28 1
  32        1       29 1
  33        1       30 1
  34        1       31 1
  35        3       32 1
  36        3       33 1
  37        8       34 1
  38        8       35 1
  39       10       36 1
  40       10       37 1
  41       11       38 1
  42       11       39 1
  43       13       40 1
  44       13       41 1
  45       14       42 1
  46       15       43 1
  47       15       44 1
  48       16       45 1
  49       16       46 1
  50       18       47 1
  51       18       48 1
  52       19       49 1
  53       19       50 1
  54       20       51 1
  55       20       52 1
  56       21       53 1
  57       21       54 1
  58       22       55 1
  59       22       56 1
  60       23       57 1
  61       23       58 1
  62       24       59 1
  63       24       60 1
  64       25       61 1
  65       25       62 1
  66       26       63 1
  67       26       64 1

@<TRIPOS>MOLECULE

  64   67
SMALL
USER_CHARGES
@<TRIPOS>ATOM
   1 C1           3.0010    -1.3694     2.0424 C.3          1    LIG   0.0000
   2 O2           2.0962    -2.1545     1.2799 O.3          1    LIG   0.0000
   3 C3           1.9111    -1.6938    -0.0505 C.3          1    LIG   0.0000
   4 C4           1.3633    -0.2769    -0.0243 C.2          1    LIG   0.0000
   5 N5           2.0732     0.8228    -0.0161 N.2          1    LIG   0.0000
   6 O6           1.2871     1.8145     0.0041 O.2          1    LIG   0.0000
   7 C7           0.0486     1.3846     0.0048 C.2          1    LIG   0.0000
   8 C8          -1.1905     2.2664     0.0241 C.3          1    LIG   0.0000
   9 N9          -1.5973     2.5702    -1.3555 N.3          1    LIG   0.0000
  10 C10         -2.9196     3.2139    -1.3243 C.3          1    LIG   0.0000
  11 C11         -3.3035     3.7349    -2.7002 C.3          1    LIG   0.0000
  12 N12         -2.3787     3.2407    -3.7330 N.4          1    LIG   1.0000
  13 C13         -2.7804     3.7529    -5.0509 C.3          1    LIG   0.0000
  14 C14         -4.1894     3.2787    -5.3711 C.3          1    LIG   0.0000
  15 C15         -4.2367     1.7578    -5.3903 C.3          1    LIG   0.0000
  16 C16         -5.6303     1.2798    -5.7642 C.3          1    LIG   0.0000
  17 C17         -6.0672     1.8413    -7.1072 C.3          1    LIG   0.0000
  18 C18         -5.1621     1.3171    -8.2113 C.3          1    LIG   0.0000
  19 C19         -5.5282     1.9019    -9.5658 C.3          1    LIG   0.0000
  20 C20         -6.9469     1.4551    -9.8791 C.3          1    LIG   0.0000
  21 C21         -7.9261     1.8975    -8.8013 C.3          1    LIG   0.0000
  22 C22         -7.4743     1.3774    -7.4472 C.3          1    LIG   0.0000
  23 C23         -6.0366     3.3570    -6.9788 C.3          1    LIG   0.0000
  24 C24         -4.6364     3.8713    -6.6951 C.3          1    LIG   0.0000
  25 C25         -1.0348     3.7630    -3.4423 C.3          1    LIG   0.0000
  26 C26         -0.6274     3.4642    -2.0076 C.3          1    LIG   0.0000
  27 N27          0.0510     0.0747    -0.0094 N.2          1    LIG   0.0000
  28 H           -2.3680     2.2408    -3.7386 H            1    LIG   0.0000
  29 H            3.0804    -1.7520     2.9629 H            1    LIG   0.0000
  30 H            3.8985    -1.3728     1.6014 H            1    LIG   0.0000
  31 H            2.6613    -0.4307     2.0997 H            1    LIG   0.0000
  32 H            1.2648    -2.2924    -0.5237 H            1    LIG   0.0000
  33 H            2.7878    -1.7034    -0.5315 H            1    LIG   0.0000
  34 H           -1.9329     1.7879     0.4929 H            1    LIG   0.0000
  35 H           -0.9859     3.1182     0.5065 H            1    LIG   0.0000
  36 H           -2.8962     3.9782    -0.6798 H            1    LIG   0.0000
  37 H           -3.6015     2.5465    -1.0252 H            1    LIG   0.0000
  38 H           -4.2300     3.4284    -2.9183 H            1    LIG   0.0000
  39 H           -3.2768     4.7345    -2.6898 H            1    LIG   0.0000
  40 H           -2.1481     3.4134    -5.7473 H            1    LIG   0.0000
  41 H           -2.7594     4.7526    -5.0405 H            1    LIG   0.0000
  42 H           -4.8045     3.6059    -4.6537 H            1    LIG   0.0000
  43 H           -4.0000     1.4086    -4.4836 H            1    LIG   0.0000
  44 H           -3.5791     1.4154    -6.0614 H            1    LIG   0.0000
  45 H           -5.6294     0.2811    -5.8139 H            1    LIG   0.0000
  46 H           -6.2761     1.5781    -5.0613 H            1    LIG   0.0000
  47 H           -5.2474     0.3217    -8.2547 H            1    LIG   0.0000
  48 H           -4.2162     1.5617    -7.9980 H            1    LIG   0.0000
  49 H           -4.8998     1.5636   -10.2662 H            1    LIG   0.0000
  50 H           -5.4830     2.9003    -9.5315 H            1    LIG   0.0000
  51 H           -6.9657     0.4574    -9.9446 H            1    LIG   0.0000
  52 H           -7.2262     1.8518   -10.7536 H            1    LIG   0.0000
  53 H           -7.9634     2.8965    -8.7772 H            1    LIG   0.0000
  54 H           -8.8345     1.5349    -9.0095 H            1    LIG   0.0000
  55 H           -8.1038     1.7110    -6.7454 H            1    LIG   0.0000
  56 H           -7.4911     0.3776    -7.4620 H            1    LIG   0.0000
  57 H           -6.6397     3.6305    -6.2296 H            1    LIG   0.0000
  58 H           -6.3626     3.7608    -7.8336 H            1    LIG   0.0000
  59 H           -4.0140     3.5858    -7.4239 H            1    LIG   0.0000
  60 H           -4.6451     4.8695    -6.6363 H            1    LIG   0.0000
  61 H           -1.0321     4.7530    -3.5828 H            1    LIG   0.0000
  62 H           -0.3776     3.3363    -4.0636 H            1    LIG   0.0000
  63 H            0.2714     3.0260    -2.0080 H            1    LIG   0.0000
  64 H           -0.5796     4.3224    -1.4964 H            1    LIG   0.0000
@<TRIPOS>BOND
   1        1        2 1
   2        2        3 1
   3        3        4 1
   4        4        5 2
   5        5        6 1
   6        6        7 1
   7        7        8 1
   8        8        9 1
   9        9       10 1
  10       10       11 1
  11       11       12 1
  12       12       13 1
  13       13       14 1
  14       14       15 1
  15       15       16 1
  16       16       17 1
  17       17       18 1
  18       18       19 1
  19       19       20 1
  20       20       21 1
  21       21       22 1
  22       22       17 1
  23       17       23 1
  24       23       24 1
  25       24       14 1
  26       12       25 1
  27       25       26 1
  28       26        9 1
  29        7       27 2
  30       27        4 1
  31       12       28 1
  32        1       29 1
  33        1       30 1
  34        1       31 1
  35        3       32 1
  36        3       33 1
  37        8       34 1
  38        8       35 1
  39       10       36 1
  40       10       37 1
  41       11       38 1
  42       11       39 1
  43       13       40 1
  44       13       41 1
  45       14       42 1
  46       15       43 1
  47       15       44 1
  48       16       45 1
  49       16       46 1
  50       18       47 1
  51       18       48 1
  52       19       49 1
  53       19       50 1
  54       20       51 1
  55       20       52 1
  56       21       53 1
  57       21       54 1
  58       22       55 1
  59       22       56 1
  60       23       57 1
  61       23       58 1
  62       24       59 1
  63       24       60 1
  64       25       61 1
  65       25       62 1
  66       26       63 1
  67       26       64 1

