@<TRIPOS>MOLECULE
*****
 64 67 0 0 0
SMALL
USER_CHARGES

@<TRIPOS>ATOM
      1 C1          0.8605   -2.1196   -2.1453 C.3     1  LIG1        0.0000
      2 O2          2.0675   -2.1160   -1.3973 O.3     1  LIG1        0.0000
      3 C3          1.9111   -1.6938   -0.0505 C.3     1  LIG1        0.0000
      4 C4          1.3633   -0.2769   -0.0243 C.2     1  LIG1        0.0000
      5 N5          2.0732    0.8228   -0.0161 N.2     1  LIG1        0.0000
      6 O6          1.2871    1.8145    0.0041 O.2     1  LIG1        0.0000
      7 C7          0.0486    1.3846    0.0048 C.2     1  LIG1        0.0000
      8 C8         -1.1905    2.2664    0.0241 C.3     1  LIG1        0.0000
      9 N9         -1.5820    2.5310    1.4162 N.3     1  LIG1        0.0000
     10 C10        -2.0997    1.2854    2.0032 C.3     1  LIG1        0.0000
     11 C11        -2.3304    1.4434    3.4978 C.3     1  LIG1        0.0000
     12 N12        -2.2172    2.8525    3.9074 N.4     1  LIG1        1.0000
     13 C13        -2.4539    2.9740    5.3529 C.3     1  LIG1        0.0000
     14 C14        -3.8483    2.4668    5.6824 C.3     1  LIG1        0.0000
     15 C15        -4.1075    2.5865    7.1758 C.3     1  LIG1        0.0000
     16 C16        -5.5204    2.1223    7.4955 C.3     1  LIG1        0.0000
     17 C17        -6.5547    2.9274    6.7252 C.3     1  LIG1        0.0000
     18 C18        -7.9549    2.4240    7.0408 C.3     1  LIG1        0.0000
     19 C19        -9.0141    3.2256    6.2984 C.3     1  LIG1        0.0000
     20 C20        -8.8857    4.7032    6.6381 C.3     1  LIG1        0.0000
     21 C21        -7.4916    5.2349    6.3433 C.3     1  LIG1        0.0000
     22 C22        -6.5120    4.3924    7.1449 C.3     1  LIG1        0.0000
     23 C23        -6.2502    2.7241    5.2472 C.3     1  LIG1        0.0000
     24 C24        -4.8720    3.2398    4.8646 C.3     1  LIG1        0.0000
     25 C25        -0.8435    3.3054    3.6408 C.3     1  LIG1        0.0000
     26 C26        -0.4363    3.0105    2.2052 C.3     1  LIG1        0.0000
     27 N27         0.0510    0.0747   -0.0094 N.2     1  LIG1        0.0000
     28 H          -2.8715    3.4140    3.4009 H       1  LIG1        0.0000
     29 H           1.0476   -2.4262   -3.0785 H       1  LIG1        0.0000
     30 H           0.2041   -2.7399   -1.7159 H       1  LIG1        0.0000
     31 H           0.4798   -1.1952   -2.1681 H       1  LIG1        0.0000
     32 H           2.7979   -1.7169    0.4111 H       1  LIG1        0.0000
     33 H           1.2749   -2.3060    0.4190 H       1  LIG1        0.0000
     34 H          -0.9911    3.1315   -0.4362 H       1  LIG1        0.0000
     35 H          -1.9381    1.8012   -0.4498 H       1  LIG1        0.0000
     36 H          -1.4377    0.5517    1.8501 H       1  LIG1        0.0000
     37 H          -2.9656    1.0507    1.5615 H       1  LIG1        0.0000
     38 H          -3.2460    1.1106    3.7236 H       1  LIG1        0.0000
     39 H          -1.6485    0.9042    3.9920 H       1  LIG1        0.0000
     40 H          -2.3755    3.9334    5.6240 H       1  LIG1        0.0000
     41 H          -1.7760    2.4311    5.8485 H       1  LIG1        0.0000
     42 H          -3.9028    1.5013    5.4277 H       1  LIG1        0.0000
     43 H          -4.0009    3.5407    7.4553 H       1  LIG1        0.0000
     44 H          -3.4516    2.0183    7.6726 H       1  LIG1        0.0000
     45 H          -5.6096    1.1572    7.2493 H       1  LIG1        0.0000
     46 H          -5.6856    2.2329    8.4755 H       1  LIG1        0.0000
     47 H          -8.1156    2.5050    8.0244 H       1  LIG1        0.0000
     48 H          -8.0241    1.4639    6.7697 H       1  LIG1        0.0000
     49 H          -9.9217    2.9023    6.5664 H       1  LIG1        0.0000
     50 H          -8.8932    3.1010    5.3136 H       1  LIG1        0.0000
     51 H          -9.0805    4.8292    7.6109 H       1  LIG1        0.0000
     52 H          -9.5494    5.2183    6.0958 H       1  LIG1        0.0000
     53 H          -7.2936    5.1546    5.3664 H       1  LIG1        0.0000
     54 H          -7.4250    6.1938    6.6191 H       1  LIG1        0.0000
     55 H          -5.5873    4.7444    6.9998 H       1  LIG1        0.0000
     56 H          -6.7455    4.4587    8.1149 H       1  LIG1        0.0000
     57 H          -6.9369    3.2113    4.7076 H       1  LIG1        0.0000
     58 H          -6.2963    1.7467    5.0410 H       1  LIG1        0.0000
     59 H          -4.7111    3.0915    3.8888 H       1  LIG1        0.0000
     60 H          -4.8045    4.2164    5.0689 H       1  LIG1        0.0000
     61 H          -0.2179    2.8324    4.2611 H       1  LIG1        0.0000
     62 H          -0.7884    4.2912    3.7996 H       1  LIG1        0.0000
     63 H          -0.0803    3.8470    1.7885 H       1  LIG1        0.0000
     64 H           0.2763    2.3089    2.2056 H       1  LIG1        0.0000
@<TRIPOS>UNITY_ATOM_ATTR
12 1
charge 1
@<TRIPOS>BOND
     1     1     2    1
     2     2     3    1
     3     3     4    1
     4     4     5    2
     5     5     6    1
     6     6     7    1
     7     7     8    1
     8     8     9    1
     9     9    10    1
    10    10    11    1
    11    11    12    1
    12    12    13    1
    13    13    14    1
    14    14    15    1
    15    15    16    1
    16    16    17    1
    17    17    18    1
    18    18    19    1
    19    19    20    1
    20    20    21    1
    21    21    22    1
    22    22    17    1
    23    17    23    1
    24    23    24    1
    25    24    14    1
    26    12    25    1
    27    25    26    1
    28    26     9    1
    29     7    27    2
    30    27     4    1
    31    12    28    1
    32     1    29    1
    33     1    30    1
    34     1    31    1
    35     3    32    1
    36     3    33    1
    37     8    34    1
    38     8    35    1
    39    10    36    1
    40    10    37    1
    41    11    38    1
    42    11    39    1
    43    13    40    1
    44    13    41    1
    45    14    42    1
    46    15    43    1
    47    15    44    1
    48    16    45    1
    49    16    46    1
    50    18    47    1
    51    18    48    1
    52    19    49    1
    53    19    50    1
    54    20    51    1
    55    20    52    1
    56    21    53    1
    57    21    54    1
    58    22    55    1
    59    22    56    1
    60    23    57    1
    61    23    58    1
    62    24    59    1
    63    24    60    1
    64    25    61    1
    65    25    62    1
    66    26    63    1
    67    26    64    1
