@<TRIPOS>MOLECULE
*****
 64 67 0 0 0
SMALL
USER_CHARGES

@<TRIPOS>ATOM
      1 C1          0.8605   -2.1196   -2.1453 C.3     1  LIG1        0.0000
      2 O2          2.0675   -2.1160   -1.3973 O.3     1  LIG1        0.0000
      3 C3          1.9111   -1.6938   -0.0505 C.3     1  LIG1        0.0000
      4 C4          1.3633   -0.2769   -0.0243 C.2     1  LIG1        0.0000
      5 N5          2.0732    0.8228   -0.0161 N.2     1  LIG1        0.0000
      6 O6          1.2871    1.8145    0.0041 O.2     1  LIG1        0.0000
      7 C7          0.0486    1.3846    0.0048 C.2     1  LIG1        0.0000
      8 C8         -1.1905    2.2664    0.0241 C.3     1  LIG1        0.0000
      9 N9         -1.5973    2.5702   -1.3555 N.3     1  LIG1        0.0000
     10 C10        -2.9196    3.2139   -1.3243 C.3     1  LIG1        0.0000
     11 C11        -3.3035    3.7349   -2.7002 C.3     1  LIG1        0.0000
     12 N12        -2.3787    3.2407   -3.7330 N.4     1  LIG1        1.0000
     13 C13        -2.7804    3.7529   -5.0509 C.3     1  LIG1        0.0000
     14 C14        -4.1886    3.2790   -5.3709 C.3     1  LIG1        0.0000
     15 C15        -4.6180    3.8016   -6.7325 C.3     1  LIG1        0.0000
     16 C16        -6.0090    3.2867   -7.0703 C.3     1  LIG1        0.0000
     17 C17        -6.0532    1.7671   -7.0625 C.3     1  LIG1        0.0000
     18 C18        -7.4601    1.2802   -7.3741 C.3     1  LIG1        0.0000
     19 C19        -7.5306   -0.2398   -7.3932 C.3     1  LIG1        0.0000
     20 C20        -6.5345   -0.7972   -8.3993 C.3     1  LIG1        0.0000
     21 C21        -5.1178   -0.3194   -8.1206 C.3     1  LIG1        0.0000
     22 C22        -5.1442    1.2006   -8.1475 C.3     1  LIG1        0.0000
     23 C23        -5.6499    1.3283   -5.6613 C.3     1  LIG1        0.0000
     24 C24        -4.2362    1.7599   -5.3049 C.3     1  LIG1        0.0000
     25 C25        -1.0348    3.7630   -3.4423 C.3     1  LIG1        0.0000
     26 C26        -0.6274    3.4642   -2.0076 C.3     1  LIG1        0.0000
     27 N27         0.0510    0.0747   -0.0094 N.2     1  LIG1        0.0000
     28 H          -2.3680    2.2408   -3.7386 H       1  LIG1        0.0000
     29 H           1.0476   -2.4262   -3.0785 H       1  LIG1        0.0000
     30 H           0.2041   -2.7399   -1.7159 H       1  LIG1        0.0000
     31 H           0.4798   -1.1952   -2.1681 H       1  LIG1        0.0000
     32 H           2.7979   -1.7169    0.4111 H       1  LIG1        0.0000
     33 H           1.2749   -2.3060    0.4190 H       1  LIG1        0.0000
     34 H          -1.9329    1.7879    0.4929 H       1  LIG1        0.0000
     35 H          -0.9859    3.1182    0.5065 H       1  LIG1        0.0000
     36 H          -2.8962    3.9782   -0.6798 H       1  LIG1        0.0000
     37 H          -3.6015    2.5465   -1.0252 H       1  LIG1        0.0000
     38 H          -4.2300    3.4284   -2.9183 H       1  LIG1        0.0000
     39 H          -3.2768    4.7345   -2.6898 H       1  LIG1        0.0000
     40 H          -2.1481    3.4134   -5.7473 H       1  LIG1        0.0000
     41 H          -2.7594    4.7526   -5.0405 H       1  LIG1        0.0000
     42 H          -4.8113    3.6460   -4.6798 H       1  LIG1        0.0000
     43 H          -3.9707    3.4879   -7.4272 H       1  LIG1        0.0000
     44 H          -4.6298    4.8014   -6.7152 H       1  LIG1        0.0000
     45 H          -6.6582    3.6349   -6.3941 H       1  LIG1        0.0000
     46 H          -6.2660    3.6153   -7.9792 H       1  LIG1        0.0000
     47 H          -7.7343    1.6298   -8.2700 H       1  LIG1        0.0000
     48 H          -8.0863    1.6261   -6.6754 H       1  LIG1        0.0000
     49 H          -8.4542   -0.5248   -7.6496 H       1  LIG1        0.0000
     50 H          -7.3136   -0.5924   -6.4829 H       1  LIG1        0.0000
     51 H          -6.8011   -0.5005   -9.3163 H       1  LIG1        0.0000
     52 H          -6.5535   -1.7960   -8.3535 H       1  LIG1        0.0000
     53 H          -4.8178   -0.6414   -7.2227 H       1  LIG1        0.0000
     54 H          -4.4953   -0.6640   -8.8233 H       1  LIG1        0.0000
     55 H          -4.2159    1.5436   -8.0044 H       1  LIG1        0.0000
     56 H          -5.4775    1.5034   -9.0404 H       1  LIG1        0.0000
     57 H          -5.7045    0.3312   -5.6086 H       1  LIG1        0.0000
     58 H          -6.2849    1.7322   -5.0028 H       1  LIG1        0.0000
     59 H          -4.0081    1.4514   -4.3814 H       1  LIG1        0.0000
     60 H          -3.5860    1.3697   -5.9567 H       1  LIG1        0.0000
     61 H          -1.0321    4.7530   -3.5828 H       1  LIG1        0.0000
     62 H          -0.3776    3.3363   -4.0636 H       1  LIG1        0.0000
     63 H           0.2714    3.0260   -2.0080 H       1  LIG1        0.0000
     64 H          -0.5796    4.3224   -1.4964 H       1  LIG1        0.0000
@<TRIPOS>UNITY_ATOM_ATTR
12 1
charge 1
@<TRIPOS>BOND
     1     1     2    1
     2     2     3    1
     3     3     4    1
     4     4     5    2
     5     5     6    1
     6     6     7    1
     7     7     8    1
     8     8     9    1
     9     9    10    1
    10    10    11    1
    11    11    12    1
    12    12    13    1
    13    13    14    1
    14    14    15    1
    15    15    16    1
    16    16    17    1
    17    17    18    1
    18    18    19    1
    19    19    20    1
    20    20    21    1
    21    21    22    1
    22    22    17    1
    23    17    23    1
    24    23    24    1
    25    24    14    1
    26    12    25    1
    27    25    26    1
    28    26     9    1
    29     7    27    2
    30    27     4    1
    31    12    28    1
    32     1    29    1
    33     1    30    1
    34     1    31    1
    35     3    32    1
    36     3    33    1
    37     8    34    1
    38     8    35    1
    39    10    36    1
    40    10    37    1
    41    11    38    1
    42    11    39    1
    43    13    40    1
    44    13    41    1
    45    14    42    1
    46    15    43    1
    47    15    44    1
    48    16    45    1
    49    16    46    1
    50    18    47    1
    51    18    48    1
    52    19    49    1
    53    19    50    1
    54    20    51    1
    55    20    52    1
    56    21    53    1
    57    21    54    1
    58    22    55    1
    59    22    56    1
    60    23    57    1
    61    23    58    1
    62    24    59    1
    63    24    60    1
    64    25    61    1
    65    25    62    1
    66    26    63    1
    67    26    64    1
