@<TRIPOS>MOLECULE
*****
 64 67 0 0 0
SMALL
USER_CHARGES

@<TRIPOS>ATOM
      1 C1          3.0010   -1.3694    2.0424 C.3     1  LIG1        0.0000
      2 O2          2.0962   -2.1545    1.2799 O.3     1  LIG1        0.0000
      3 C3          1.9111   -1.6938   -0.0505 C.3     1  LIG1        0.0000
      4 C4          1.3633   -0.2769   -0.0243 C.2     1  LIG1        0.0000
      5 N5          2.0732    0.8228   -0.0161 N.2     1  LIG1        0.0000
      6 O6          1.2871    1.8145    0.0041 O.2     1  LIG1        0.0000
      7 C7          0.0486    1.3846    0.0048 C.2     1  LIG1        0.0000
      8 C8         -1.1905    2.2664    0.0241 C.3     1  LIG1        0.0000
      9 N9         -1.5973    2.5702   -1.3555 N.3     1  LIG1        0.0000
     10 C10        -2.1216    1.3417   -1.9718 C.3     1  LIG1        0.0000
     11 C11        -2.7453    1.6364   -3.3268 C.3     1  LIG1        0.0000
     12 N12        -2.4376    3.0066   -3.7672 N.4     1  LIG1        1.0000
     13 C13        -3.0453    3.2581   -5.0817 C.3     1  LIG1        0.0000
     14 C14        -2.4897    2.2691   -6.0946 C.3     1  LIG1        0.0000
     15 C15        -0.9799    2.4261   -6.2036 C.3     1  LIG1        0.0000
     16 C16        -0.4273    1.4776   -7.2550 C.3     1  LIG1        0.0000
     17 C17        -1.0834    1.7055   -8.6068 C.3     1  LIG1        0.0000
     18 C18        -0.7515    3.0981   -9.1199 C.3     1  LIG1        0.0000
     19 C19        -1.4378    3.3895  -10.4445 C.3     1  LIG1        0.0000
     20 C20        -0.9078    2.3854  -11.4552 C.3     1  LIG1        0.0000
     21 C21        -1.1551    0.9525  -11.0061 C.3     1  LIG1        0.0000
     22 C22        -0.5401    0.7267   -9.6352 C.3     1  LIG1        0.0000
     23 C23        -2.5755    1.4802   -8.4126 C.3     1  LIG1        0.0000
     24 C24        -3.1738    2.4749   -7.4338 C.3     1  LIG1        0.0000
     25 C25        -3.0384    3.9485   -2.8106 C.3     1  LIG1        0.0000
     26 C26        -2.6309    3.6171   -1.3831 C.3     1  LIG1        0.0000
     27 N27         0.0510    0.0747   -0.0094 N.2     1  LIG1        0.0000
     28 H          -1.4478    3.1421   -3.8116 H       1  LIG1        0.0000
     29 H           3.0804   -1.7520    2.9629 H       1  LIG1        0.0000
     30 H           3.8985   -1.3728    1.6014 H       1  LIG1        0.0000
     31 H           2.6613   -0.4307    2.0997 H       1  LIG1        0.0000
     32 H           1.2648   -2.2924   -0.5237 H       1  LIG1        0.0000
     33 H           2.7878   -1.7034   -0.5315 H       1  LIG1        0.0000
     34 H          -1.9329    1.7879    0.4929 H       1  LIG1        0.0000
     35 H          -0.9859    3.1182    0.5065 H       1  LIG1        0.0000
     36 H          -2.8159    0.9450   -1.3713 H       1  LIG1        0.0000
     37 H          -1.3725    0.6901   -2.0912 H       1  LIG1        0.0000
     38 H          -2.3860    0.9892   -3.9991 H       1  LIG1        0.0000
     39 H          -3.7374    1.5305   -3.2593 H       1  LIG1        0.0000
     40 H          -2.8323    4.1902   -5.3745 H       1  LIG1        0.0000
     41 H          -4.0370    3.1474   -5.0171 H       1  LIG1        0.0000
     42 H          -2.6897    1.3427   -5.7756 H       1  LIG1        0.0000
     43 H          -0.5616    2.2186   -5.3192 H       1  LIG1        0.0000
     44 H          -0.7636    3.3677   -6.4619 H       1  LIG1        0.0000
     45 H           0.5577    1.6267   -7.3422 H       1  LIG1        0.0000
     46 H          -0.5976    0.5358   -6.9653 H       1  LIG1        0.0000
     47 H           0.2380    3.1697   -9.2453 H       1  LIG1        0.0000
     48 H          -1.0515    3.7720   -8.4447 H       1  LIG1        0.0000
     49 H          -1.2261    4.3202  -10.7427 H       1  LIG1        0.0000
     50 H          -2.4278    3.2877  -10.3472 H       1  LIG1        0.0000
     51 H           0.0761    2.5253  -11.5659 H       1  LIG1        0.0000
     52 H          -1.3663    2.5343  -12.3313 H       1  LIG1        0.0000
     53 H          -2.1399    0.7849  -10.9593 H       1  LIG1        0.0000
     54 H          -0.7407    0.3228  -11.6632 H       1  LIG1        0.0000
     55 H          -0.7470   -0.2050   -9.3367 H       1  LIG1        0.0000
     56 H           0.4509    0.8432   -9.7015 H       1  LIG1        0.0000
     57 H          -2.7202    0.5547   -8.0625 H       1  LIG1        0.0000
     58 H          -3.0352    1.5784   -9.2953 H       1  LIG1        0.0000
     59 H          -3.0168    3.4081   -7.7571 H       1  LIG1        0.0000
     60 H          -4.1567    2.3147   -7.3428 H       1  LIG1        0.0000
     61 H          -4.0343    3.8988   -2.8855 H       1  LIG1        0.0000
     62 H          -2.7335    4.8753   -3.0301 H       1  LIG1        0.0000
     63 H          -2.2718    4.4419   -0.9463 H       1  LIG1        0.0000
     64 H          -3.4338    3.2964   -0.8806 H       1  LIG1        0.0000
@<TRIPOS>UNITY_ATOM_ATTR
12 1
charge 1
@<TRIPOS>BOND
     1     1     2    1
     2     2     3    1
     3     3     4    1
     4     4     5    2
     5     5     6    1
     6     6     7    1
     7     7     8    1
     8     8     9    1
     9     9    10    1
    10    10    11    1
    11    11    12    1
    12    12    13    1
    13    13    14    1
    14    14    15    1
    15    15    16    1
    16    16    17    1
    17    17    18    1
    18    18    19    1
    19    19    20    1
    20    20    21    1
    21    21    22    1
    22    22    17    1
    23    17    23    1
    24    23    24    1
    25    24    14    1
    26    12    25    1
    27    25    26    1
    28    26     9    1
    29     7    27    2
    30    27     4    1
    31    12    28    1
    32     1    29    1
    33     1    30    1
    34     1    31    1
    35     3    32    1
    36     3    33    1
    37     8    34    1
    38     8    35    1
    39    10    36    1
    40    10    37    1
    41    11    38    1
    42    11    39    1
    43    13    40    1
    44    13    41    1
    45    14    42    1
    46    15    43    1
    47    15    44    1
    48    16    45    1
    49    16    46    1
    50    18    47    1
    51    18    48    1
    52    19    49    1
    53    19    50    1
    54    20    51    1
    55    20    52    1
    56    21    53    1
    57    21    54    1
    58    22    55    1
    59    22    56    1
    60    23    57    1
    61    23    58    1
    62    24    59    1
    63    24    60    1
    64    25    61    1
    65    25    62    1
    66    26    63    1
    67    26    64    1
