@<TRIPOS>MOLECULE
*****
 64 67 0 0 0
SMALL
USER_CHARGES

@<TRIPOS>ATOM
      1 C1          0.8605   -2.1196   -2.1453 C.3     1  LIG1        0.0000
      2 O2          2.0675   -2.1160   -1.3973 O.3     1  LIG1        0.0000
      3 C3          1.9111   -1.6938   -0.0505 C.3     1  LIG1        0.0000
      4 C4          1.3633   -0.2769   -0.0243 C.2     1  LIG1        0.0000
      5 N5          2.0732    0.8228   -0.0161 N.2     1  LIG1        0.0000
      6 O6          1.2871    1.8145    0.0041 O.2     1  LIG1        0.0000
      7 C7          0.0486    1.3846    0.0048 C.2     1  LIG1        0.0000
      8 C8         -1.1905    2.2664    0.0241 C.3     1  LIG1        0.0000
      9 N9         -1.5973    2.5702   -1.3555 N.3     1  LIG1        0.0000
     10 C10        -0.6023    3.4760   -1.9499 C.3     1  LIG1        0.0000
     11 C11        -0.8580    3.6641   -3.4370 C.3     1  LIG1        0.0000
     12 N12        -2.1605    3.1015   -3.8280 N.4     1  LIG1        1.0000
     13 C13        -2.3827    3.3065   -5.2664 C.3     1  LIG1        0.0000
     14 C14        -2.3668    4.7948   -5.5745 C.3     1  LIG1        0.0000
     15 C15        -2.5956    5.0225   -7.0602 C.3     1  LIG1        0.0000
     16 C16        -2.6263    6.5140   -7.3574 C.3     1  LIG1        0.0000
     17 C17        -3.7095    7.2159   -6.5541 C.3     1  LIG1        0.0000
     18 C18        -3.6988    8.7082   -6.8481 C.3     1  LIG1        0.0000
     19 C19        -4.7875    9.4352   -6.0722 C.3     1  LIG1        0.0000
     20 C20        -6.1484    8.8347   -6.3928 C.3     1  LIG1        0.0000
     21 C21        -6.1882    7.3392   -6.1190 C.3     1  LIG1        0.0000
     22 C22        -5.0882    6.7016   -6.9530 C.3     1  LIG1        0.0000
     23 C23        -3.3872    6.9731   -5.0859 C.3     1  LIG1        0.0000
     24 C24        -3.4153    5.4965   -4.7244 C.3     1  LIG1        0.0000
     25 C25        -2.1331    1.6515   -3.5832 C.3     1  LIG1        0.0000
     26 C26        -1.6916    1.3423   -2.1609 C.3     1  LIG1        0.0000
     27 N27         0.0510    0.0747   -0.0094 N.2     1  LIG1        0.0000
     28 H          -2.8947    3.5281   -3.2999 H       1  LIG1        0.0000
     29 H           1.0476   -2.4262   -3.0785 H       1  LIG1        0.0000
     30 H           0.2041   -2.7399   -1.7159 H       1  LIG1        0.0000
     31 H           0.4798   -1.1952   -2.1681 H       1  LIG1        0.0000
     32 H           2.7979   -1.7169    0.4111 H       1  LIG1        0.0000
     33 H           1.2749   -2.3060    0.4190 H       1  LIG1        0.0000
     34 H          -1.9329    1.7879    0.4929 H       1  LIG1        0.0000
     35 H          -0.9859    3.1182    0.5065 H       1  LIG1        0.0000
     36 H           0.3107    3.0888   -1.8213 H       1  LIG1        0.0000
     37 H          -0.6549    4.3644   -1.4939 H       1  LIG1        0.0000
     38 H          -0.8480    4.6414   -3.6486 H       1  LIG1        0.0000
     39 H          -0.1356    3.2039   -3.9530 H       1  LIG1        0.0000
     40 H          -3.2689    2.9221   -5.5249 H       1  LIG1        0.0000
     41 H          -1.6581    2.8513   -5.7838 H       1  LIG1        0.0000
     42 H          -1.4673    5.1590   -5.3328 H       1  LIG1        0.0000
     43 H          -3.4679    4.6132   -7.3277 H       1  LIG1        0.0000
     44 H          -1.8544    4.5963   -7.5788 H       1  LIG1        0.0000
     45 H          -1.7387    6.9109   -7.1236 H       1  LIG1        0.0000
     46 H          -2.8051    6.6482   -8.3321 H       1  LIG1        0.0000
     47 H          -3.8484    8.8480   -7.8269 H       1  LIG1        0.0000
     48 H          -2.8090    9.0842   -6.5898 H       1  LIG1        0.0000
     49 H          -4.7848   10.4024   -6.3261 H       1  LIG1        0.0000
     50 H          -4.6099    9.3474   -5.0920 H       1  LIG1        0.0000
     51 H          -6.3513    8.9917   -7.3593 H       1  LIG1        0.0000
     52 H          -6.8410    9.2849   -5.8293 H       1  LIG1        0.0000
     53 H          -6.0272    7.1640   -5.1477 H       1  LIG1        0.0000
     54 H          -7.0779    6.9660   -6.3821 H       1  LIG1        0.0000
     55 H          -5.1150    5.7106   -6.8219 H       1  LIG1        0.0000
     56 H          -5.2473    6.9148   -7.9170 H       1  LIG1        0.0000
     57 H          -4.0611    7.4542   -4.5251 H       1  LIG1        0.0000
     58 H          -2.4747    7.3339   -4.8932 H       1  LIG1        0.0000
     59 H          -3.2024    5.3788   -3.7544 H       1  LIG1        0.0000
     60 H          -4.3199    5.1157   -4.9156 H       1  LIG1        0.0000
     61 H          -1.4943    1.2246   -4.2233 H       1  LIG1        0.0000
     62 H          -3.0496    1.2787   -3.7286 H       1  LIG1        0.0000
     63 H          -2.3566    0.7257   -1.7394 H       1  LIG1        0.0000
     64 H          -0.7955    0.8991   -2.1864 H       1  LIG1        0.0000
@<TRIPOS>UNITY_ATOM_ATTR
12 1
charge 1
@<TRIPOS>BOND
     1     1     2    1
     2     2     3    1
     3     3     4    1
     4     4     5    2
     5     5     6    1
     6     6     7    1
     7     7     8    1
     8     8     9    1
     9     9    10    1
    10    10    11    1
    11    11    12    1
    12    12    13    1
    13    13    14    1
    14    14    15    1
    15    15    16    1
    16    16    17    1
    17    17    18    1
    18    18    19    1
    19    19    20    1
    20    20    21    1
    21    21    22    1
    22    22    17    1
    23    17    23    1
    24    23    24    1
    25    24    14    1
    26    12    25    1
    27    25    26    1
    28    26     9    1
    29     7    27    2
    30    27     4    1
    31    12    28    1
    32     1    29    1
    33     1    30    1
    34     1    31    1
    35     3    32    1
    36     3    33    1
    37     8    34    1
    38     8    35    1
    39    10    36    1
    40    10    37    1
    41    11    38    1
    42    11    39    1
    43    13    40    1
    44    13    41    1
    45    14    42    1
    46    15    43    1
    47    15    44    1
    48    16    45    1
    49    16    46    1
    50    18    47    1
    51    18    48    1
    52    19    49    1
    53    19    50    1
    54    20    51    1
    55    20    52    1
    56    21    53    1
    57    21    54    1
    58    22    55    1
    59    22    56    1
    60    23    57    1
    61    23    58    1
    62    24    59    1
    63    24    60    1
    64    25    61    1
    65    25    62    1
    66    26    63    1
    67    26    64    1
