@<TRIPOS>MOLECULE
*****
 64 67 0 0 0
SMALL
USER_CHARGES

@<TRIPOS>ATOM
      1 C1          0.8605   -2.1196   -2.1453 C.3     1  LIG1        0.0000
      2 O2          2.0675   -2.1160   -1.3973 O.3     1  LIG1        0.0000
      3 C3          1.9111   -1.6938   -0.0505 C.3     1  LIG1        0.0000
      4 C4          1.3633   -0.2769   -0.0243 C.2     1  LIG1        0.0000
      5 N5          2.0732    0.8228   -0.0161 N.2     1  LIG1        0.0000
      6 O6          1.2871    1.8145    0.0041 O.2     1  LIG1        0.0000
      7 C7          0.0486    1.3846    0.0048 C.2     1  LIG1        0.0000
      8 C8         -1.1905    2.2664    0.0241 C.3     1  LIG1        0.0000
      9 N9         -1.5820    2.5310    1.4162 N.3     1  LIG1        0.0000
     10 C10        -0.5804    3.4197    2.0250 C.3     1  LIG1        0.0000
     11 C11        -1.0350    3.8924    3.3969 C.3     1  LIG1        0.0000
     12 N12        -2.2195    3.1463    3.8509 N.4     1  LIG1        1.0000
     13 C13        -2.6289    3.6185    5.1813 C.3     1  LIG1        0.0000
     14 C14        -1.4924    3.4030    6.1673 C.3     1  LIG1        0.0000
     15 C15        -1.9018    3.8873    7.5491 C.3     1  LIG1        0.0000
     16 C16        -0.7801    3.6269    8.5430 C.3     1  LIG1        0.0000
     17 C17        -0.4215    2.1505    8.5980 C.3     1  LIG1        0.0000
     18 C18         0.7205    1.9226    9.5763 C.3     1  LIG1        0.0000
     19 C19         1.0883    0.4488    9.6677 C.3     1  LIG1        0.0000
     20 C20        -0.1305   -0.3709   10.0650 C.3     1  LIG1        0.0000
     21 C21        -1.2951   -0.1565    9.1107 C.3     1  LIG1        0.0000
     22 C22        -1.6030    1.3325    9.1071 C.3     1  LIG1        0.0000
     23 C23         0.0117    1.7564    7.1925 C.3     1  LIG1        0.0000
     24 C24        -1.1028    1.9325    6.1733 C.3     1  LIG1        0.0000
     25 C25        -3.3258    3.4192    2.9209 C.3     1  LIG1        0.0000
     26 C26        -2.9089    3.1639    1.4806 C.3     1  LIG1        0.0000
     27 N27         0.0510    0.0747   -0.0094 N.2     1  LIG1        0.0000
     28 H          -2.0226    2.1662    3.8768 H       1  LIG1        0.0000
     29 H           1.0476   -2.4262   -3.0785 H       1  LIG1        0.0000
     30 H           0.2041   -2.7399   -1.7159 H       1  LIG1        0.0000
     31 H           0.4798   -1.1952   -2.1681 H       1  LIG1        0.0000
     32 H           2.7979   -1.7169    0.4111 H       1  LIG1        0.0000
     33 H           1.2749   -2.3060    0.4190 H       1  LIG1        0.0000
     34 H          -0.9911    3.1315   -0.4362 H       1  LIG1        0.0000
     35 H          -1.9381    1.8012   -0.4498 H       1  LIG1        0.0000
     36 H          -0.4454    4.2144    1.4333 H       1  LIG1        0.0000
     37 H           0.2828    2.9238    2.1193 H       1  LIG1        0.0000
     38 H          -0.2921    3.7552    4.0520 H       1  LIG1        0.0000
     39 H          -1.2611    4.8653    3.3483 H       1  LIG1        0.0000
     40 H          -3.4337    3.1076    5.4833 H       1  LIG1        0.0000
     41 H          -2.8503    4.5926    5.1356 H       1  LIG1        0.0000
     42 H          -0.7041    3.9385    5.8643 H       1  LIG1        0.0000
     43 H          -2.7239    3.3987    7.8415 H       1  LIG1        0.0000
     44 H          -2.0920    4.8684    7.5135 H       1  LIG1        0.0000
     45 H           0.0274    4.1480    8.2666 H       1  LIG1        0.0000
     46 H          -1.0742    3.9246    9.4512 H       1  LIG1        0.0000
     47 H           0.4429    2.2453   10.4812 H       1  LIG1        0.0000
     48 H           1.5200    2.4389    9.2691 H       1  LIG1        0.0000
     49 H           1.8056    0.3289   10.3541 H       1  LIG1        0.0000
     50 H           1.4220    0.1355    8.7786 H       1  LIG1        0.0000
     51 H          -0.4138   -0.1031   10.9859 H       1  LIG1        0.0000
     52 H           0.1165   -1.3399   10.0609 H       1  LIG1        0.0000
     53 H          -1.0441   -0.4570    8.1905 H       1  LIG1        0.0000
     54 H          -2.0936   -0.6711    9.4232 H       1  LIG1        0.0000
     55 H          -2.3917    1.4990    8.5153 H       1  LIG1        0.0000
     56 H          -1.8193    1.6211   10.0398 H       1  LIG1        0.0000
     57 H           0.2918    0.7964    7.1999 H       1  LIG1        0.0000
     58 H           0.7869    2.3277    6.9231 H       1  LIG1        0.0000
     59 H          -0.7812    1.6612    5.2661 H       1  LIG1        0.0000
     60 H          -1.8905    1.3720    6.4291 H       1  LIG1        0.0000
     61 H          -3.6033    4.3752    3.0157 H       1  LIG1        0.0000
     62 H          -4.0970    2.8243    3.1477 H       1  LIG1        0.0000
     63 H          -3.5795    2.5608    1.0486 H       1  LIG1        0.0000
     64 H          -2.8791    4.0349    0.9901 H       1  LIG1        0.0000
@<TRIPOS>UNITY_ATOM_ATTR
12 1
charge 1
@<TRIPOS>BOND
     1     1     2    1
     2     2     3    1
     3     3     4    1
     4     4     5    2
     5     5     6    1
     6     6     7    1
     7     7     8    1
     8     8     9    1
     9     9    10    1
    10    10    11    1
    11    11    12    1
    12    12    13    1
    13    13    14    1
    14    14    15    1
    15    15    16    1
    16    16    17    1
    17    17    18    1
    18    18    19    1
    19    19    20    1
    20    20    21    1
    21    21    22    1
    22    22    17    1
    23    17    23    1
    24    23    24    1
    25    24    14    1
    26    12    25    1
    27    25    26    1
    28    26     9    1
    29     7    27    2
    30    27     4    1
    31    12    28    1
    32     1    29    1
    33     1    30    1
    34     1    31    1
    35     3    32    1
    36     3    33    1
    37     8    34    1
    38     8    35    1
    39    10    36    1
    40    10    37    1
    41    11    38    1
    42    11    39    1
    43    13    40    1
    44    13    41    1
    45    14    42    1
    46    15    43    1
    47    15    44    1
    48    16    45    1
    49    16    46    1
    50    18    47    1
    51    18    48    1
    52    19    49    1
    53    19    50    1
    54    20    51    1
    55    20    52    1
    56    21    53    1
    57    21    54    1
    58    22    55    1
    59    22    56    1
    60    23    57    1
    61    23    58    1
    62    24    59    1
    63    24    60    1
    64    25    61    1
    65    25    62    1
    66    26    63    1
    67    26    64    1
