@<TRIPOS>MOLECULE
*****
 64 67 0 0 0
SMALL
USER_CHARGES

@<TRIPOS>ATOM
      1 C1          0.8605   -2.1196   -2.1453 C.3     1  LIG1        0.0000
      2 O2          2.0675   -2.1160   -1.3973 O.3     1  LIG1        0.0000
      3 C3          1.9111   -1.6938   -0.0505 C.3     1  LIG1        0.0000
      4 C4          1.3633   -0.2769   -0.0243 C.2     1  LIG1        0.0000
      5 N5          2.0732    0.8228   -0.0161 N.2     1  LIG1        0.0000
      6 O6          1.2871    1.8145    0.0041 O.2     1  LIG1        0.0000
      7 C7          0.0486    1.3846    0.0048 C.2     1  LIG1        0.0000
      8 C8         -1.1905    2.2664    0.0241 C.3     1  LIG1        0.0000
      9 N9         -1.5973    2.5702   -1.3555 N.3     1  LIG1        0.0000
     10 C10        -2.1216    1.3417   -1.9718 C.3     1  LIG1        0.0000
     11 C11        -2.7453    1.6364   -3.3268 C.3     1  LIG1        0.0000
     12 N12        -2.4376    3.0066   -3.7672 N.4     1  LIG1        1.0000
     13 C13        -3.0453    3.2581   -5.0817 C.3     1  LIG1        0.0000
     14 C14        -2.4899    2.2695   -6.0941 C.3     1  LIG1        0.0000
     15 C15        -0.9814    2.4321   -6.1977 C.3     1  LIG1        0.0000
     16 C16        -0.4798    1.4359   -7.2297 C.3     1  LIG1        0.0000
     17 C17        -1.0838    1.7074   -8.6007 C.3     1  LIG1        0.0000
     18 C18        -0.7765    3.1003   -9.1297 C.3     1  LIG1        0.0000
     19 C19         0.7205    3.3424   -9.2290 C.3     1  LIG1        0.0000
     20 C20         1.2831    2.3322  -10.2127 C.3     1  LIG1        0.0000
     21 C21         0.9822    0.9059   -9.7846 C.3     1  LIG1        0.0000
     22 C22        -0.5189    0.7213   -9.6113 C.3     1  LIG1        0.0000
     23 C23        -2.5862    1.5119   -8.4674 C.3     1  LIG1        0.0000
     24 C24        -3.1800    2.4586   -7.4362 C.3     1  LIG1        0.0000
     25 C25        -3.0384    3.9485   -2.8106 C.3     1  LIG1        0.0000
     26 C26        -2.6309    3.6171   -1.3831 C.3     1  LIG1        0.0000
     27 N27         0.0510    0.0747   -0.0094 N.2     1  LIG1        0.0000
     28 H          -1.4478    3.1421   -3.8116 H       1  LIG1        0.0000
     29 H           1.0476   -2.4262   -3.0785 H       1  LIG1        0.0000
     30 H           0.2041   -2.7399   -1.7159 H       1  LIG1        0.0000
     31 H           0.4798   -1.1952   -2.1681 H       1  LIG1        0.0000
     32 H           2.7979   -1.7169    0.4111 H       1  LIG1        0.0000
     33 H           1.2749   -2.3060    0.4190 H       1  LIG1        0.0000
     34 H          -1.9329    1.7879    0.4929 H       1  LIG1        0.0000
     35 H          -0.9859    3.1182    0.5065 H       1  LIG1        0.0000
     36 H          -2.8159    0.9450   -1.3713 H       1  LIG1        0.0000
     37 H          -1.3725    0.6901   -2.0912 H       1  LIG1        0.0000
     38 H          -2.3860    0.9892   -3.9991 H       1  LIG1        0.0000
     39 H          -3.7374    1.5305   -3.2593 H       1  LIG1        0.0000
     40 H          -2.8323    4.1902   -5.3745 H       1  LIG1        0.0000
     41 H          -4.0370    3.1474   -5.0171 H       1  LIG1        0.0000
     42 H          -2.6844    1.3442   -5.7687 H       1  LIG1        0.0000
     43 H          -0.5571    2.2471   -5.3113 H       1  LIG1        0.0000
     44 H          -0.7581    3.3632   -6.4863 H       1  LIG1        0.0000
     45 H           0.5157    1.5058   -7.2928 H       1  LIG1        0.0000
     46 H          -0.7315    0.5125   -6.9401 H       1  LIG1        0.0000
     47 H          -1.1746    3.7777   -8.5111 H       1  LIG1        0.0000
     48 H          -1.1824    3.1994  -10.0382 H       1  LIG1        0.0000
     49 H           1.1462    3.2194   -8.3326 H       1  LIG1        0.0000
     50 H           0.8950    4.2710   -9.5564 H       1  LIG1        0.0000
     51 H           2.2743    2.4516  -10.2690 H       1  LIG1        0.0000
     52 H           0.8763    2.4936  -11.1118 H       1  LIG1        0.0000
     53 H           1.3153    0.2729  -10.4834 H       1  LIG1        0.0000
     54 H           1.4417    0.7164   -8.9169 H       1  LIG1        0.0000
     55 H          -0.9687    0.8648  -10.4928 H       1  LIG1        0.0000
     56 H          -0.6981   -0.2096   -9.2932 H       1  LIG1        0.0000
     57 H          -2.7679    0.5695   -8.1865 H       1  LIG1        0.0000
     58 H          -3.0166    1.6845   -9.3534 H       1  LIG1        0.0000
     59 H          -3.0545    3.4022   -7.7426 H       1  LIG1        0.0000
     60 H          -4.1565    2.2678   -7.3358 H       1  LIG1        0.0000
     61 H          -4.0343    3.8988   -2.8855 H       1  LIG1        0.0000
     62 H          -2.7335    4.8753   -3.0301 H       1  LIG1        0.0000
     63 H          -2.2718    4.4419   -0.9463 H       1  LIG1        0.0000
     64 H          -3.4338    3.2964   -0.8806 H       1  LIG1        0.0000
@<TRIPOS>UNITY_ATOM_ATTR
12 1
charge 1
@<TRIPOS>BOND
     1     1     2    1
     2     2     3    1
     3     3     4    1
     4     4     5    2
     5     5     6    1
     6     6     7    1
     7     7     8    1
     8     8     9    1
     9     9    10    1
    10    10    11    1
    11    11    12    1
    12    12    13    1
    13    13    14    1
    14    14    15    1
    15    15    16    1
    16    16    17    1
    17    17    18    1
    18    18    19    1
    19    19    20    1
    20    20    21    1
    21    21    22    1
    22    22    17    1
    23    17    23    1
    24    23    24    1
    25    24    14    1
    26    12    25    1
    27    25    26    1
    28    26     9    1
    29     7    27    2
    30    27     4    1
    31    12    28    1
    32     1    29    1
    33     1    30    1
    34     1    31    1
    35     3    32    1
    36     3    33    1
    37     8    34    1
    38     8    35    1
    39    10    36    1
    40    10    37    1
    41    11    38    1
    42    11    39    1
    43    13    40    1
    44    13    41    1
    45    14    42    1
    46    15    43    1
    47    15    44    1
    48    16    45    1
    49    16    46    1
    50    18    47    1
    51    18    48    1
    52    19    49    1
    53    19    50    1
    54    20    51    1
    55    20    52    1
    56    21    53    1
    57    21    54    1
    58    22    55    1
    59    22    56    1
    60    23    57    1
    61    23    58    1
    62    24    59    1
    63    24    60    1
    64    25    61    1
    65    25    62    1
    66    26    63    1
    67    26    64    1
