@<TRIPOS>MOLECULE

  67   71
SMALL
USER_CHARGES
@<TRIPOS>ATOM
   1 C1           4.0140     1.5440     4.9918 C.3          1    LIG   0.0000
   2 C2           3.3161     2.1411     3.7802 C.ar         1    LIG   0.0000
   3 C3           3.4852     3.4893     3.4823 C.ar         1    LIG   0.0000
   4 C4           2.8447     4.0309     2.3728 C.ar         1    LIG   0.0000
   5 C5           2.0420     3.2252     1.5713 C.ar         1    LIG   0.0000
   6 O6           1.4216     3.7532     0.4947 O.3          1    LIG   0.0000
   7 C7           1.8778     1.8778     1.8778 C.ar         1    LIG   0.0000
   8 C8           1.0000     1.0000     1.0000 C.3          1    LIG   0.0000
   9 C9          -0.4632     1.3108     1.2743 C.2          1    LIG   0.0000
  10 C10         -0.9848     1.7480     2.4508 C.2          1    LIG   0.0000
  11 C11         -0.2183     2.0139     3.7364 C.3          1    LIG   0.0000
  12 N12         -2.3245     1.9047     2.2592 N.pl3        1    LIG   0.0000
  13 C13         -3.2709     2.3648     3.2852 C.3          1    LIG   0.0000
  14 N14         -2.6445     1.5808     1.0283 N.pl3        1    LIG   0.0000
  15 C15         -3.9356     1.6160     0.4874 C.ar         1    LIG   0.0000
  16 C16         -4.7467     0.4888     0.5685 C.ar         1    LIG   0.0000
  17 C17         -6.0275     0.5324     0.0279 C.ar         1    LIG   0.0000
  18 C18         -6.4852     1.6947    -0.5855 C.ar         1    LIG   0.0000
  19 C19         -5.6673     2.8173    -0.6619 C.ar         1    LIG   0.0000
  20 C20         -4.3846     2.7819    -0.1242 C.ar         1    LIG   0.0000
  21 C21         -1.5245     1.2040     0.3503 C.2          1    LIG   0.0000
  22 O22         -1.4535     0.8429    -0.8123 O.2          1    LIG   0.0000
  23 C23          1.2743    -0.4632     1.3108 C.2          1    LIG   0.0000
  24 C24          1.9895    -1.3272     0.5432 C.2          1    LIG   0.0000
  25 C25          2.6604    -1.0145    -0.7846 C.3          1    LIG   0.0000
  26 N26          1.9931    -2.5261     1.1902 N.pl3        1    LIG   0.0000
  27 C27          2.6585    -3.7419     0.7009 C.3          1    LIG   0.0000
  28 N28          1.3130    -2.4364     2.3090 N.pl3        1    LIG   0.0000
  29 C29          1.1047    -3.4790     3.2202 C.ar         1    LIG   0.0000
  30 C30         -0.0064    -4.3041     3.0800 C.ar         1    LIG   0.0000
  31 C31         -0.2057    -5.3368     3.9901 C.ar         1    LIG   0.0000
  32 C32          0.7011    -5.5362     5.0267 C.ar         1    LIG   0.0000
  33 C33          1.8097    -4.7064     5.1591 C.ar         1    LIG   0.0000
  34 C34          2.0162    -3.6707     4.2535 C.ar         1    LIG   0.0000
  35 C35          0.8377    -1.1678     2.4530 C.2          1    LIG   0.0000
  36 O36          0.1681    -0.7319     3.3743 O.2          1    LIG   0.0000
  37 C37          2.5146     1.3277     2.9854 C.ar         1    LIG   0.0000
  38 H            4.5467     2.2536     5.4530 H            1    LIG   0.0000
  39 H            3.3306     1.1772     5.6230 H            1    LIG   0.0000
  40 H            4.6237     0.8084     4.6964 H            1    LIG   0.0000
  41 H            4.0627     4.0646     4.0615 H            1    LIG   0.0000
  42 H            2.9612     4.9990     2.1511 H            1    LIG   0.0000
  43 H            1.5396     4.7215     0.2745 H            1    LIG   0.0000
  44 H            1.2044     1.1804     0.0379 H            1    LIG   0.0000
  45 H            0.7513     1.8153     3.5935 H            1    LIG   0.0000
  46 H           -0.3272     2.9732     3.9970 H            1    LIG   0.0000
  47 H           -0.5748     1.4282     4.4643 H            1    LIG   0.0000
  48 H           -2.7779     2.5461     4.1362 H            1    LIG   0.0000
  49 H           -3.7183     3.2033     2.9740 H            1    LIG   0.0000
  50 H           -3.9605     1.6581     3.4436 H            1    LIG   0.0000
  51 H           -4.4127    -0.3436     1.0106 H            1    LIG   0.0000
  52 H           -6.6197    -0.2717     0.0800 H            1    LIG   0.0000
  53 H           -7.4066     1.7230    -0.9732 H            1    LIG   0.0000
  54 H           -6.0014     3.6500    -1.1033 H            1    LIG   0.0000
  55 H           -3.7920     3.5857    -0.1769 H            1    LIG   0.0000
  56 H            2.4967    -0.0574    -1.0236 H            1    LIG   0.0000
  57 H            3.6444    -1.1750    -0.7069 H            1    LIG   0.0000
  58 H            2.2815    -1.6054    -1.4968 H            1    LIG   0.0000
  59 H            3.1066    -3.5484    -0.1719 H            1    LIG   0.0000
  60 H            3.3418    -4.0393     1.3677 H            1    LIG   0.0000
  61 H            1.9797    -4.4652     0.5739 H            1    LIG   0.0000
  62 H           -0.6547    -4.1563     2.3331 H            1    LIG   0.0000
  63 H           -1.0010    -5.9362     3.8996 H            1    LIG   0.0000
  64 H            0.5551    -6.2795     5.6794 H            1    LIG   0.0000
  65 H            2.4585    -4.8544     5.9056 H            1    LIG   0.0000
  66 H            2.8110    -3.0706     4.3442 H            1    LIG   0.0000
  67 H            2.3978     0.3597     3.2076 H            1    LIG   0.0000
@<TRIPOS>BOND
   1        1        2 1
   2        2        3 ar
   3        3        4 ar
   4        4        5 ar
   5        5        6 1
   6        5        7 ar
   7        7        8 1
   8        8        9 1
   9        9       10 2
  10       10       11 1
  11       10       12 1
  12       12       13 1
  13       12       14 1
  14       14       15 1
  15       15       16 ar
  16       16       17 ar
  17       17       18 ar
  18       18       19 ar
  19       19       20 ar
  20       20       15 ar
  21       14       21 1
  22       21        9 1
  23       21       22 2
  24        8       23 1
  25       23       24 2
  26       24       25 1
  27       24       26 1
  28       26       27 1
  29       26       28 1
  30       28       29 1
  31       29       30 ar
  32       30       31 ar
  33       31       32 ar
  34       32       33 ar
  35       33       34 ar
  36       34       29 ar
  37       28       35 1
  38       35       23 1
  39       35       36 2
  40        7       37 ar
  41       37        2 ar
  42        1       38 1
  43        1       39 1
  44        1       40 1
  45        3       41 1
  46        4       42 1
  47        6       43 1
  48        8       44 1
  49       11       45 1
  50       11       46 1
  51       11       47 1
  52       13       48 1
  53       13       49 1
  54       13       50 1
  55       16       51 1
  56       17       52 1
  57       18       53 1
  58       19       54 1
  59       20       55 1
  60       25       56 1
  61       25       57 1
  62       25       58 1
  63       27       59 1
  64       27       60 1
  65       27       61 1
  66       30       62 1
  67       31       63 1
  68       32       64 1
  69       33       65 1
  70       34       66 1
  71       37       67 1

@<TRIPOS>MOLECULE

  67   71
SMALL
USER_CHARGES
@<TRIPOS>ATOM
   1 C1           1.7225     3.5514     5.2759 C.3          1    LIG   0.0000
   2 C2           2.2264     3.0952     3.9158 C.ar         1    LIG   0.0000
   3 C3           3.4893     3.4850     3.4825 C.ar         1    LIG   0.0000
   4 C4           3.9459     3.0650     2.2375 C.ar         1    LIG   0.0000
   5 C5           3.1404     2.2618     1.4364 C.ar         1    LIG   0.0000
   6 O6           3.5858     1.8552     0.2285 O.3          1    LIG   0.0000
   7 C7           1.8778     1.8778     1.8778 C.ar         1    LIG   0.0000
   8 C8           1.0000     1.0000     1.0000 C.3          1    LIG   0.0000
   9 C9          -0.4632     1.3108     1.2743 C.2          1    LIG   0.0000
  10 C10         -1.2997     2.0159     0.4678 C.2          1    LIG   0.0000
  11 C11         -0.9487     2.6428    -0.8719 C.3          1    LIG   0.0000
  12 N12         -2.5129     2.0527     1.0864 N.pl3        1    LIG   0.0000
  13 C13         -3.7082     2.7197     0.5511 C.3          1    LIG   0.0000
  14 N14         -2.4555     1.4103     2.2295 N.pl3        1    LIG   0.0000
  15 C15         -3.5170     1.2547     3.1293 C.ar         1    LIG   0.0000
  16 C16         -4.4997     2.2357     3.2108 C.ar         1    LIG   0.0000
  17 C17         -5.5501     2.0732     4.1080 C.ar         1    LIG   0.0000
  18 C18         -5.6103     0.9387     4.9116 C.ar         1    LIG   0.0000
  19 C19         -4.6232    -0.0375     4.8232 C.ar         1    LIG   0.0000
  20 C20         -3.5688     0.1175     3.9289 C.ar         1    LIG   0.0000
  21 C21         -1.2001     0.9128     2.4102 C.2          1    LIG   0.0000
  22 O22         -0.7944     0.2635     3.3593 O.2          1    LIG   0.0000
  23 C23          1.2743    -0.4632     1.3108 C.2          1    LIG   0.0000
  24 C24          1.6631    -0.9705     2.5103 C.2          1    LIG   0.0000
  25 C25          1.9079    -0.1842     3.7881 C.3          1    LIG   0.0000
  26 N26          1.7899    -2.3176     2.3512 N.pl3        1    LIG   0.0000
  27 C27          2.1943    -3.2534     3.4099 C.3          1    LIG   0.0000
  28 N28          1.5027    -2.6543     1.1156 N.pl3        1    LIG   0.0000
  29 C29          1.5354    -3.9552     0.5985 C.ar         1    LIG   0.0000
  30 C30          2.7096    -4.4420     0.0335 C.ar         1    LIG   0.0000
  31 C31          2.7328    -5.7351    -0.4784 C.ar         1    LIG   0.0000
  32 C32          1.5899    -6.5270    -0.4218 C.ar         1    LIG   0.0000
  33 C33          0.4201    -6.0321     0.1452 C.ar         1    LIG   0.0000
  34 C34          0.3881    -4.7395     0.6589 C.ar         1    LIG   0.0000
  35 C35          1.1643    -1.5412     0.4068 C.2          1    LIG   0.0000
  36 O36          0.8396    -1.4858    -0.7674 O.2          1    LIG   0.0000
  37 C37          1.4132     2.2930     3.1215 C.ar         1    LIG   0.0000
  38 H            2.4198     4.1159     5.7175 H            1    LIG   0.0000
  39 H            0.8856     4.0860     5.1591 H            1    LIG   0.0000
  40 H            1.5308     2.7522     5.8456 H            1    LIG   0.0000
  41 H            4.0646     4.0627     4.0615 H            1    LIG   0.0000
  42 H            4.8528     3.3402     1.9185 H            1    LIG   0.0000
  43 H            4.4931     2.1312    -0.0887 H            1    LIG   0.0000
  44 H            1.2044     1.1804     0.0379 H            1    LIG   0.0000
  45 H            0.0116     2.4611    -1.0836 H            1    LIG   0.0000
  46 H           -1.5277     2.2492    -1.5859 H            1    LIG   0.0000
  47 H           -1.0991     3.6304    -0.8274 H            1    LIG   0.0000
  48 H           -3.4908     3.1343    -0.3326 H            1    LIG   0.0000
  49 H           -4.4400     2.0485     0.4334 H            1    LIG   0.0000
  50 H           -4.0069     3.4303     1.1882 H            1    LIG   0.0000
  51 H           -4.4516     3.0489     2.6308 H            1    LIG   0.0000
  52 H           -6.2623     2.7719     4.1756 H            1    LIG   0.0000
  53 H           -6.3667     0.8247     5.5556 H            1    LIG   0.0000
  54 H           -4.6716    -0.8510     5.4027 H            1    LIG   0.0000
  55 H           -2.8561    -0.5807     3.8617 H            1    LIG   0.0000
  56 H            1.7403     0.7870     3.6191 H            1    LIG   0.0000
  57 H            1.2896    -0.5097     4.5034 H            1    LIG   0.0000
  58 H            2.8550    -0.3127     4.0823 H            1    LIG   0.0000
  59 H            2.3559    -2.7482     4.2576 H            1    LIG   0.0000
  60 H            1.4685    -3.9257     3.5557 H            1    LIG   0.0000
  61 H            3.0338    -3.7232     3.1367 H            1    LIG   0.0000
  62 H            3.5280    -3.8686    -0.0042 H            1    LIG   0.0000
  63 H            3.5711    -6.0958    -0.8871 H            1    LIG   0.0000
  64 H            1.6097    -7.4563    -0.7907 H            1    LIG   0.0000
  65 H           -0.3982    -6.6056     0.1836 H            1    LIG   0.0000
  66 H           -0.4503    -4.3783     1.0671 H            1    LIG   0.0000
  67 H            0.5061     2.0184     3.4406 H            1    LIG   0.0000
@<TRIPOS>BOND
   1        1        2 1
   2        2        3 ar
   3        3        4 ar
   4        4        5 ar
   5        5        6 1
   6        5        7 ar
   7        7        8 1
   8        8        9 1
   9        9       10 2
  10       10       11 1
  11       10       12 1
  12       12       13 1
  13       12       14 1
  14       14       15 1
  15       15       16 ar
  16       16       17 ar
  17       17       18 ar
  18       18       19 ar
  19       19       20 ar
  20       20       15 ar
  21       14       21 1
  22       21        9 1
  23       21       22 2
  24        8       23 1
  25       23       24 2
  26       24       25 1
  27       24       26 1
  28       26       27 1
  29       26       28 1
  30       28       29 1
  31       29       30 ar
  32       30       31 ar
  33       31       32 ar
  34       32       33 ar
  35       33       34 ar
  36       34       29 ar
  37       28       35 1
  38       35       23 1
  39       35       36 2
  40        7       37 ar
  41       37        2 ar
  42        1       38 1
  43        1       39 1
  44        1       40 1
  45        3       41 1
  46        4       42 1
  47        6       43 1
  48        8       44 1
  49       11       45 1
  50       11       46 1
  51       11       47 1
  52       13       48 1
  53       13       49 1
  54       13       50 1
  55       16       51 1
  56       17       52 1
  57       18       53 1
  58       19       54 1
  59       20       55 1
  60       25       56 1
  61       25       57 1
  62       25       58 1
  63       27       59 1
  64       27       60 1
  65       27       61 1
  66       30       62 1
  67       31       63 1
  68       32       64 1
  69       33       65 1
  70       34       66 1
  71       37       67 1

@<TRIPOS>MOLECULE

  67   71
SMALL
USER_CHARGES
@<TRIPOS>ATOM
   1 C1           1.7225     3.5514     5.2759 C.3          1    LIG   0.0000
   2 C2           2.2264     3.0952     3.9158 C.ar         1    LIG   0.0000
   3 C3           3.4893     3.4850     3.4825 C.ar         1    LIG   0.0000
   4 C4           3.9459     3.0650     2.2375 C.ar         1    LIG   0.0000
   5 C5           3.1404     2.2618     1.4364 C.ar         1    LIG   0.0000
   6 O6           3.5858     1.8552     0.2285 O.3          1    LIG   0.0000
   7 C7           1.8778     1.8778     1.8778 C.ar         1    LIG   0.0000
   8 C8           1.0000     1.0000     1.0000 C.3          1    LIG   0.0000
   9 C9          -0.4632     1.3108     1.2743 C.2          1    LIG   0.0000
  10 C10         -1.2997     2.0159     0.4678 C.2          1    LIG   0.0000
  11 C11         -0.9487     2.6428    -0.8719 C.3          1    LIG   0.0000
  12 N12         -2.5129     2.0527     1.0864 N.pl3        1    LIG   0.0000
  13 C13         -3.7082     2.7197     0.5511 C.3          1    LIG   0.0000
  14 N14         -2.4555     1.4103     2.2295 N.pl3        1    LIG   0.0000
  15 C15         -3.5170     1.2547     3.1293 C.ar         1    LIG   0.0000
  16 C16         -3.7154     2.2004     4.1299 C.ar         1    LIG   0.0000
  17 C17         -4.7719     2.0374     5.0198 C.ar         1    LIG   0.0000
  18 C18         -5.6168     0.9379     4.9037 C.ar         1    LIG   0.0000
  19 C19         -5.4111    -0.0029     3.8998 C.ar         1    LIG   0.0000
  20 C20         -4.3563     0.1522     3.0059 C.ar         1    LIG   0.0000
  21 C21         -1.2001     0.9128     2.4102 C.2          1    LIG   0.0000
  22 O22         -0.7944     0.2635     3.3593 O.2          1    LIG   0.0000
  23 C23          1.2743    -0.4632     1.3108 C.2          1    LIG   0.0000
  24 C24          1.6631    -0.9705     2.5103 C.2          1    LIG   0.0000
  25 C25          1.9079    -0.1842     3.7881 C.3          1    LIG   0.0000
  26 N26          1.7899    -2.3176     2.3512 N.pl3        1    LIG   0.0000
  27 C27          2.1943    -3.2534     3.4099 C.3          1    LIG   0.0000
  28 N28          1.5027    -2.6543     1.1156 N.pl3        1    LIG   0.0000
  29 C29          1.5354    -3.9552     0.5985 C.ar         1    LIG   0.0000
  30 C30          2.7096    -4.4420     0.0335 C.ar         1    LIG   0.0000
  31 C31          2.7328    -5.7351    -0.4784 C.ar         1    LIG   0.0000
  32 C32          1.5899    -6.5270    -0.4218 C.ar         1    LIG   0.0000
  33 C33          0.4201    -6.0321     0.1452 C.ar         1    LIG   0.0000
  34 C34          0.3881    -4.7395     0.6589 C.ar         1    LIG   0.0000
  35 C35          1.1643    -1.5412     0.4068 C.2          1    LIG   0.0000
  36 O36          0.8396    -1.4858    -0.7674 O.2          1    LIG   0.0000
  37 C37          1.4132     2.2930     3.1215 C.ar         1    LIG   0.0000
  38 H            2.4198     4.1159     5.7175 H            1    LIG   0.0000
  39 H            0.8856     4.0860     5.1591 H            1    LIG   0.0000
  40 H            1.5308     2.7522     5.8456 H            1    LIG   0.0000
  41 H            4.0646     4.0627     4.0615 H            1    LIG   0.0000
  42 H            4.8528     3.3402     1.9185 H            1    LIG   0.0000
  43 H            4.4931     2.1312    -0.0887 H            1    LIG   0.0000
  44 H            1.2044     1.1804     0.0379 H            1    LIG   0.0000
  45 H            0.0116     2.4611    -1.0836 H            1    LIG   0.0000
  46 H           -1.5277     2.2492    -1.5859 H            1    LIG   0.0000
  47 H           -1.0991     3.6304    -0.8274 H            1    LIG   0.0000
  48 H           -3.4908     3.1343    -0.3326 H            1    LIG   0.0000
  49 H           -4.4400     2.0485     0.4334 H            1    LIG   0.0000
  50 H           -4.0069     3.4303     1.1882 H            1    LIG   0.0000
  51 H           -3.1052     2.9887     4.2085 H            1    LIG   0.0000
  52 H           -4.9243     2.7107     5.7434 H            1    LIG   0.0000
  53 H           -6.3756     0.8234     5.5449 H            1    LIG   0.0000
  54 H           -6.0216    -0.7909     3.8206 H            1    LIG   0.0000
  55 H           -4.2033    -0.5213     2.2828 H            1    LIG   0.0000
  56 H            1.7403     0.7870     3.6191 H            1    LIG   0.0000
  57 H            1.2896    -0.5097     4.5034 H            1    LIG   0.0000
  58 H            2.8550    -0.3127     4.0823 H            1    LIG   0.0000
  59 H            2.3559    -2.7482     4.2576 H            1    LIG   0.0000
  60 H            1.4685    -3.9257     3.5557 H            1    LIG   0.0000
  61 H            3.0338    -3.7232     3.1367 H            1    LIG   0.0000
  62 H            3.5280    -3.8686    -0.0042 H            1    LIG   0.0000
  63 H            3.5711    -6.0958    -0.8871 H            1    LIG   0.0000
  64 H            1.6097    -7.4563    -0.7907 H            1    LIG   0.0000
  65 H           -0.3982    -6.6056     0.1836 H            1    LIG   0.0000
  66 H           -0.4503    -4.3783     1.0671 H            1    LIG   0.0000
  67 H            0.5061     2.0184     3.4406 H            1    LIG   0.0000
@<TRIPOS>BOND
   1        1        2 1
   2        2        3 ar
   3        3        4 ar
   4        4        5 ar
   5        5        6 1
   6        5        7 ar
   7        7        8 1
   8        8        9 1
   9        9       10 2
  10       10       11 1
  11       10       12 1
  12       12       13 1
  13       12       14 1
  14       14       15 1
  15       15       16 ar
  16       16       17 ar
  17       17       18 ar
  18       18       19 ar
  19       19       20 ar
  20       20       15 ar
  21       14       21 1
  22       21        9 1
  23       21       22 2
  24        8       23 1
  25       23       24 2
  26       24       25 1
  27       24       26 1
  28       26       27 1
  29       26       28 1
  30       28       29 1
  31       29       30 ar
  32       30       31 ar
  33       31       32 ar
  34       32       33 ar
  35       33       34 ar
  36       34       29 ar
  37       28       35 1
  38       35       23 1
  39       35       36 2
  40        7       37 ar
  41       37        2 ar
  42        1       38 1
  43        1       39 1
  44        1       40 1
  45        3       41 1
  46        4       42 1
  47        6       43 1
  48        8       44 1
  49       11       45 1
  50       11       46 1
  51       11       47 1
  52       13       48 1
  53       13       49 1
  54       13       50 1
  55       16       51 1
  56       17       52 1
  57       18       53 1
  58       19       54 1
  59       20       55 1
  60       25       56 1
  61       25       57 1
  62       25       58 1
  63       27       59 1
  64       27       60 1
  65       27       61 1
  66       30       62 1
  67       31       63 1
  68       32       64 1
  69       33       65 1
  70       34       66 1
  71       37       67 1

