@<TRIPOS>MOLECULE
*****
 67 71 0 0 0
SMALL
USER_CHARGES

@<TRIPOS>ATOM
      1 C1          4.0140    1.5440    4.9918 C.3     1  LIG1        0.0000
      2 C2          3.3161    2.1411    3.7802 C.3     1  LIG1        0.0000
      3 C3          3.4852    3.4893    3.4823 C.3     1  LIG1        0.0000
      4 C4          2.8447    4.0309    2.3728 C.3     1  LIG1        0.0000
      5 C5          2.0420    3.2252    1.5713 C.3     1  LIG1        0.0000
      6 O6          1.4216    3.7532    0.4947 O.2     1  LIG1        0.0000
      7 C7          1.8778    1.8778    1.8778 C.3     1  LIG1        0.0000
      8 C8          1.0000    1.0000    1.0000 C.3     1  LIG1        0.0000
      9 C9         -0.4632    1.3108    1.2743 C.2     1  LIG1        0.0000
     10 C10        -0.9848    1.7480    2.4508 C.2     1  LIG1        0.0000
     11 C11        -0.2183    2.0139    3.7364 C.3     1  LIG1        0.0000
     12 N12        -2.3245    1.9047    2.2592 N.pl3   1  LIG1        0.0000
     13 C13        -3.2709    2.3648    3.2852 C.3     1  LIG1        0.0000
     14 N14        -2.6445    1.5808    1.0283 N.am    1  LIG1        0.0000
     15 C15        -3.9356    1.6160    0.4874 C.3     1  LIG1        0.0000
     16 C16        -4.7467    0.4888    0.5685 C.3     1  LIG1        0.0000
     17 C17        -6.0275    0.5324    0.0279 C.3     1  LIG1        0.0000
     18 C18        -6.4852    1.6947   -0.5855 C.3     1  LIG1        0.0000
     19 C19        -5.6673    2.8173   -0.6619 C.3     1  LIG1        0.0000
     20 C20        -4.3846    2.7819   -0.1242 C.3     1  LIG1        0.0000
     21 C21        -1.5245    1.2040    0.3503 C.2     1  LIG1        0.0000
     22 O22        -1.4535    0.8429   -0.8123 O.2     1  LIG1        0.0000
     23 C23         1.2743   -0.4632    1.3108 C.2     1  LIG1        0.0000
     24 C24         1.9895   -1.3272    0.5432 C.2     1  LIG1        0.0000
     25 C25         2.6604   -1.0145   -0.7846 C.3     1  LIG1        0.0000
     26 N26         1.9931   -2.5261    1.1902 N.pl3   1  LIG1        0.0000
     27 C27         2.6585   -3.7419    0.7009 C.3     1  LIG1        0.0000
     28 N28         1.3130   -2.4364    2.3090 N.am    1  LIG1        0.0000
     29 C29         1.1047   -3.4790    3.2202 C.3     1  LIG1        0.0000
     30 C30        -0.0064   -4.3041    3.0800 C.3     1  LIG1        0.0000
     31 C31        -0.2057   -5.3368    3.9901 C.3     1  LIG1        0.0000
     32 C32         0.7011   -5.5362    5.0267 C.3     1  LIG1        0.0000
     33 C33         1.8097   -4.7064    5.1591 C.3     1  LIG1        0.0000
     34 C34         2.0162   -3.6707    4.2535 C.3     1  LIG1        0.0000
     35 C35         0.8377   -1.1678    2.4530 C.2     1  LIG1        0.0000
     36 O36         0.1681   -0.7319    3.3743 O.2     1  LIG1        0.0000
     37 C37         2.5146    1.3277    2.9854 C.3     1  LIG1        0.0000
     38 H           4.5467    2.2536    5.4530 H       1  LIG1        0.0000
     39 H           3.3306    1.1772    5.6230 H       1  LIG1        0.0000
     40 H           4.6237    0.8084    4.6964 H       1  LIG1        0.0000
     41 H           4.0627    4.0646    4.0615 H       1  LIG1        0.0000
     42 H           2.9612    4.9990    2.1511 H       1  LIG1        0.0000
     43 H           1.5396    4.7215    0.2745 H       1  LIG1        0.0000
     44 H           1.2044    1.1804    0.0379 H       1  LIG1        0.0000
     45 H           0.7513    1.8153    3.5935 H       1  LIG1        0.0000
     46 H          -0.3272    2.9732    3.9970 H       1  LIG1        0.0000
     47 H          -0.5748    1.4282    4.4643 H       1  LIG1        0.0000
     48 H          -2.7779    2.5461    4.1362 H       1  LIG1        0.0000
     49 H          -3.7183    3.2033    2.9740 H       1  LIG1        0.0000
     50 H          -3.9605    1.6581    3.4436 H       1  LIG1        0.0000
     51 H          -4.4127   -0.3436    1.0106 H       1  LIG1        0.0000
     52 H          -6.6197   -0.2717    0.0800 H       1  LIG1        0.0000
     53 H          -7.4066    1.7230   -0.9732 H       1  LIG1        0.0000
     54 H          -6.0014    3.6500   -1.1033 H       1  LIG1        0.0000
     55 H          -3.7920    3.5857   -0.1769 H       1  LIG1        0.0000
     56 H           2.4967   -0.0574   -1.0236 H       1  LIG1        0.0000
     57 H           3.6444   -1.1750   -0.7069 H       1  LIG1        0.0000
     58 H           2.2815   -1.6054   -1.4968 H       1  LIG1        0.0000
     59 H           3.1066   -3.5484   -0.1719 H       1  LIG1        0.0000
     60 H           3.3418   -4.0393    1.3677 H       1  LIG1        0.0000
     61 H           1.9797   -4.4652    0.5739 H       1  LIG1        0.0000
     62 H          -0.6547   -4.1563    2.3331 H       1  LIG1        0.0000
     63 H          -1.0010   -5.9362    3.8996 H       1  LIG1        0.0000
     64 H           0.5551   -6.2795    5.6794 H       1  LIG1        0.0000
     65 H           2.4585   -4.8544    5.9056 H       1  LIG1        0.0000
     66 H           2.8110   -3.0706    4.3442 H       1  LIG1        0.0000
     67 H           2.3978    0.3597    3.2076 H       1  LIG1        0.0000
@<TRIPOS>BOND
     1     1     2    1
     2     2     3   ar
     3     3     4   ar
     4     4     5   ar
     5     5     6    1
     6     5     7   ar
     7     7     8    1
     8     8     9    1
     9     9    10    2
    10    10    11    1
    11    10    12    1
    12    12    13    1
    13    12    14    1
    14    14    15    1
    15    15    16   ar
    16    16    17   ar
    17    17    18   ar
    18    18    19   ar
    19    19    20   ar
    20    20    15   ar
    21    14    21   am
    22    21     9    1
    23    21    22    2
    24     8    23    1
    25    23    24    2
    26    24    25    1
    27    24    26    1
    28    26    27    1
    29    26    28    1
    30    28    29    1
    31    29    30   ar
    32    30    31   ar
    33    31    32   ar
    34    32    33   ar
    35    33    34   ar
    36    34    29   ar
    37    28    35   am
    38    35    23    1
    39    35    36    2
    40     7    37   ar
    41    37     2   ar
    42     1    38    1
    43     1    39    1
    44     1    40    1
    45     3    41    1
    46     4    42    1
    47     6    43    1
    48     8    44    1
    49    11    45    1
    50    11    46    1
    51    11    47    1
    52    13    48    1
    53    13    49    1
    54    13    50    1
    55    16    51    1
    56    17    52    1
    57    18    53    1
    58    19    54    1
    59    20    55    1
    60    25    56    1
    61    25    57    1
    62    25    58    1
    63    27    59    1
    64    27    60    1
    65    27    61    1
    66    30    62    1
    67    31    63    1
    68    32    64    1
    69    33    65    1
    70    34    66    1
    71    37    67    1
