@<TRIPOS>MOLECULE
*****
 67 71 0 0 0
SMALL
USER_CHARGES

@<TRIPOS>ATOM
      1 C1          1.7225    3.5514    5.2759 C.3     1  LIG1        0.0000
      2 C2          2.2264    3.0952    3.9158 C.3     1  LIG1        0.0000
      3 C3          3.4893    3.4850    3.4825 C.3     1  LIG1        0.0000
      4 C4          3.9459    3.0650    2.2375 C.3     1  LIG1        0.0000
      5 C5          3.1404    2.2618    1.4364 C.3     1  LIG1        0.0000
      6 O6          3.5858    1.8552    0.2285 O.2     1  LIG1        0.0000
      7 C7          1.8778    1.8778    1.8778 C.3     1  LIG1        0.0000
      8 C8          1.0000    1.0000    1.0000 C.3     1  LIG1        0.0000
      9 C9         -0.4632    1.3108    1.2743 C.2     1  LIG1        0.0000
     10 C10        -1.2997    2.0159    0.4678 C.2     1  LIG1        0.0000
     11 C11        -0.9487    2.6428   -0.8719 C.3     1  LIG1        0.0000
     12 N12        -2.5129    2.0527    1.0864 N.pl3   1  LIG1        0.0000
     13 C13        -3.7082    2.7197    0.5511 C.3     1  LIG1        0.0000
     14 N14        -2.4555    1.4103    2.2295 N.am    1  LIG1        0.0000
     15 C15        -3.5170    1.2547    3.1293 C.3     1  LIG1        0.0000
     16 C16        -4.4997    2.2357    3.2108 C.3     1  LIG1        0.0000
     17 C17        -5.5501    2.0732    4.1080 C.3     1  LIG1        0.0000
     18 C18        -5.6103    0.9387    4.9116 C.3     1  LIG1        0.0000
     19 C19        -4.6232   -0.0375    4.8232 C.3     1  LIG1        0.0000
     20 C20        -3.5688    0.1175    3.9289 C.3     1  LIG1        0.0000
     21 C21        -1.2001    0.9128    2.4102 C.2     1  LIG1        0.0000
     22 O22        -0.7944    0.2635    3.3593 O.2     1  LIG1        0.0000
     23 C23         1.2743   -0.4632    1.3108 C.2     1  LIG1        0.0000
     24 C24         1.6631   -0.9705    2.5103 C.2     1  LIG1        0.0000
     25 C25         1.9079   -0.1842    3.7881 C.3     1  LIG1        0.0000
     26 N26         1.7899   -2.3176    2.3512 N.pl3   1  LIG1        0.0000
     27 C27         2.1943   -3.2534    3.4099 C.3     1  LIG1        0.0000
     28 N28         1.5027   -2.6543    1.1156 N.am    1  LIG1        0.0000
     29 C29         1.5354   -3.9552    0.5985 C.3     1  LIG1        0.0000
     30 C30         2.7096   -4.4420    0.0335 C.3     1  LIG1        0.0000
     31 C31         2.7328   -5.7351   -0.4784 C.3     1  LIG1        0.0000
     32 C32         1.5899   -6.5270   -0.4218 C.3     1  LIG1        0.0000
     33 C33         0.4201   -6.0321    0.1452 C.3     1  LIG1        0.0000
     34 C34         0.3881   -4.7395    0.6589 C.3     1  LIG1        0.0000
     35 C35         1.1643   -1.5412    0.4068 C.2     1  LIG1        0.0000
     36 O36         0.8396   -1.4858   -0.7674 O.2     1  LIG1        0.0000
     37 C37         1.4132    2.2930    3.1215 C.3     1  LIG1        0.0000
     38 H           2.4198    4.1159    5.7175 H       1  LIG1        0.0000
     39 H           0.8856    4.0860    5.1591 H       1  LIG1        0.0000
     40 H           1.5308    2.7522    5.8456 H       1  LIG1        0.0000
     41 H           4.0646    4.0627    4.0615 H       1  LIG1        0.0000
     42 H           4.8528    3.3402    1.9185 H       1  LIG1        0.0000
     43 H           4.4931    2.1312   -0.0887 H       1  LIG1        0.0000
     44 H           1.2044    1.1804    0.0379 H       1  LIG1        0.0000
     45 H           0.0116    2.4611   -1.0836 H       1  LIG1        0.0000
     46 H          -1.5277    2.2492   -1.5859 H       1  LIG1        0.0000
     47 H          -1.0991    3.6304   -0.8274 H       1  LIG1        0.0000
     48 H          -3.4908    3.1343   -0.3326 H       1  LIG1        0.0000
     49 H          -4.4400    2.0485    0.4334 H       1  LIG1        0.0000
     50 H          -4.0069    3.4303    1.1882 H       1  LIG1        0.0000
     51 H          -4.4516    3.0489    2.6308 H       1  LIG1        0.0000
     52 H          -6.2623    2.7719    4.1756 H       1  LIG1        0.0000
     53 H          -6.3667    0.8247    5.5556 H       1  LIG1        0.0000
     54 H          -4.6716   -0.8510    5.4027 H       1  LIG1        0.0000
     55 H          -2.8561   -0.5807    3.8617 H       1  LIG1        0.0000
     56 H           1.7403    0.7870    3.6191 H       1  LIG1        0.0000
     57 H           1.2896   -0.5097    4.5034 H       1  LIG1        0.0000
     58 H           2.8550   -0.3127    4.0823 H       1  LIG1        0.0000
     59 H           2.3559   -2.7482    4.2576 H       1  LIG1        0.0000
     60 H           1.4685   -3.9257    3.5557 H       1  LIG1        0.0000
     61 H           3.0338   -3.7232    3.1367 H       1  LIG1        0.0000
     62 H           3.5280   -3.8686   -0.0042 H       1  LIG1        0.0000
     63 H           3.5711   -6.0958   -0.8871 H       1  LIG1        0.0000
     64 H           1.6097   -7.4563   -0.7907 H       1  LIG1        0.0000
     65 H          -0.3982   -6.6056    0.1836 H       1  LIG1        0.0000
     66 H          -0.4503   -4.3783    1.0671 H       1  LIG1        0.0000
     67 H           0.5061    2.0184    3.4406 H       1  LIG1        0.0000
@<TRIPOS>BOND
     1     1     2    1
     2     2     3   ar
     3     3     4   ar
     4     4     5   ar
     5     5     6    1
     6     5     7   ar
     7     7     8    1
     8     8     9    1
     9     9    10    2
    10    10    11    1
    11    10    12    1
    12    12    13    1
    13    12    14    1
    14    14    15    1
    15    15    16   ar
    16    16    17   ar
    17    17    18   ar
    18    18    19   ar
    19    19    20   ar
    20    20    15   ar
    21    14    21   am
    22    21     9    1
    23    21    22    2
    24     8    23    1
    25    23    24    2
    26    24    25    1
    27    24    26    1
    28    26    27    1
    29    26    28    1
    30    28    29    1
    31    29    30   ar
    32    30    31   ar
    33    31    32   ar
    34    32    33   ar
    35    33    34   ar
    36    34    29   ar
    37    28    35   am
    38    35    23    1
    39    35    36    2
    40     7    37   ar
    41    37     2   ar
    42     1    38    1
    43     1    39    1
    44     1    40    1
    45     3    41    1
    46     4    42    1
    47     6    43    1
    48     8    44    1
    49    11    45    1
    50    11    46    1
    51    11    47    1
    52    13    48    1
    53    13    49    1
    54    13    50    1
    55    16    51    1
    56    17    52    1
    57    18    53    1
    58    19    54    1
    59    20    55    1
    60    25    56    1
    61    25    57    1
    62    25    58    1
    63    27    59    1
    64    27    60    1
    65    27    61    1
    66    30    62    1
    67    31    63    1
    68    32    64    1
    69    33    65    1
    70    34    66    1
    71    37    67    1
