@<TRIPOS>MOLECULE

  35   37
SMALL
USER_CHARGES
@<TRIPOS>ATOM
   1 C1          -1.0706     1.0297    -0.0227 C.3          1    LIG   0.0000
   2 O2           0.3450     1.0329    -0.1340 O.3          1    LIG   0.0000
   3 C3           1.0000     1.0000     1.0000 C.2          1    LIG   0.0000
   4 O4           0.4000     0.9698     2.0388 O.2          1    LIG   0.0000
   5 C5           2.5190     1.0000     1.0000 C.3          1    LIG   0.0000
   6 C6           3.0733     2.3965     0.7954 C.ar         1    LIG   0.0000
   7 C7           2.9202     3.5732     1.5224 C.ar         1    LIG   0.0000
   8 C8           3.5798     4.7247     1.1055 C.ar         1    LIG   0.0000
   9 C9           4.3788     4.6708    -0.0315 C.ar         1    LIG   0.0000
  10 C10          5.1106     5.9133    -0.5113 C.3          1    LIG   0.0000
  11 C11          4.5299     3.4914    -0.7533 C.ar         1    LIG   0.0000
  12 C12          3.8676     2.3427    -0.3332 C.ar         1    LIG   0.0000
  13 C13          3.8662     1.0061    -0.8819 C.ar         1    LIG   0.0000
  14 C14          4.5369     0.5237    -2.0017 C.ar         1    LIG   0.0000
  15 C15          4.3946    -0.8155    -2.3472 C.ar         1    LIG   0.0000
  16 C16          5.1281    -1.3420    -3.5699 C.3          1    LIG   0.0000
  17 C17          3.5985    -1.6761    -1.5986 C.ar         1    LIG   0.0000
  18 C18          2.9335    -1.1835    -0.4800 C.ar         1    LIG   0.0000
  19 C19          3.0738     0.1561    -0.1334 C.ar         1    LIG   0.0000
  20 H           -1.4769     1.0562    -0.9360 H            1    LIG   0.0000
  21 H           -1.3659     0.1991     0.4495 H            1    LIG   0.0000
  22 H           -1.3659     1.8314     0.4969 H            1    LIG   0.0000
  23 H            2.8488     0.6388     1.8722 H            1    LIG   0.0000
  24 H            2.3411     3.5907     2.3375 H            1    LIG   0.0000
  25 H            3.4808     5.5789     1.6160 H            1    LIG   0.0000
  26 H            4.9081     6.6770     0.1017 H            1    LIG   0.0000
  27 H            6.0955     5.7399    -0.5138 H            1    LIG   0.0000
  28 H            4.8098     6.1405    -1.4375 H            1    LIG   0.0000
  29 H            5.1100     3.4695    -1.5676 H            1    LIG   0.0000
  30 H            5.1124     1.1309    -2.5496 H            1    LIG   0.0000
  31 H            4.9270    -2.3146    -3.6862 H            1    LIG   0.0000
  32 H            4.8273    -0.8401    -4.3808 H            1    LIG   0.0000
  33 H            6.1127    -1.2176    -3.4471 H            1    LIG   0.0000
  34 H            3.5054    -2.6366    -1.8609 H            1    LIG   0.0000
  35 H            2.3585    -1.7885     0.0708 H            1    LIG   0.0000
@<TRIPOS>BOND
   1        1        2 1
   2        2        3 1
   3        3        4 2
   4        3        5 1
   5        5        6 1
   6        6        7 ar
   7        7        8 ar
   8        8        9 ar
   9        9       10 1
  10        9       11 ar
  11       11       12 ar
  12       12        6 ar
  13       12       13 1
  14       13       14 ar
  15       14       15 ar
  16       15       16 1
  17       15       17 ar
  18       17       18 ar
  19       18       19 ar
  20       19       13 ar
  21       19        5 1
  22        1       20 1
  23        1       21 1
  24        1       22 1
  25        5       23 1
  26        7       24 1
  27        8       25 1
  28       10       26 1
  29       10       27 1
  30       10       28 1
  31       11       29 1
  32       14       30 1
  33       16       31 1
  34       16       32 1
  35       16       33 1
  36       17       34 1
  37       18       35 1

@<TRIPOS>MOLECULE

  35   37
SMALL
USER_CHARGES
@<TRIPOS>ATOM
   1 C1          -1.0706     1.0297    -0.0227 C.3          1    LIG   0.0000
   2 O2           0.3450     1.0329    -0.1340 O.3          1    LIG   0.0000
   3 C3           1.0000     1.0000     1.0000 C.2          1    LIG   0.0000
   4 O4           0.4000     0.9698     2.0388 O.2          1    LIG   0.0000
   5 C5           2.5190     1.0000     1.0000 C.3          1    LIG   0.0000
   6 C6           3.0733     2.2013     1.7409 C.ar         1    LIG   0.0000
   7 C7           2.9202     2.6354     3.0542 C.ar         1    LIG   0.0000
   8 C8           3.5798     3.7854     3.4750 C.ar         1    LIG   0.0000
   9 C9           4.3788     4.4750     2.5694 C.ar         1    LIG   0.0000
  10 C10          5.1106     5.7352     3.0005 C.3          1    LIG   0.0000
  11 C11          4.5299     4.0355     1.2583 C.ar         1    LIG   0.0000
  12 C12          3.8676     2.8855     0.8418 C.ar         1    LIG   0.0000
  13 C13          3.8662     2.2144    -0.4377 C.ar         1    LIG   0.0000
  14 C14          4.5369     2.5646    -1.6056 C.ar         1    LIG   0.0000
  15 C15          4.3946     1.7607    -2.7311 C.ar         1    LIG   0.0000
  16 C16          5.1281     2.1434    -4.0061 C.3          1    LIG   0.0000
  17 C17          3.5985     0.6203    -2.7108 C.ar         1    LIG   0.0000
  18 C18          2.9335     0.2787    -1.5373 C.ar         1    LIG   0.0000
  19 C19          3.0738     1.0820    -0.4107 C.ar         1    LIG   0.0000
  20 H           -1.4769     1.0562    -0.9360 H            1    LIG   0.0000
  21 H           -1.3659     0.1991     0.4495 H            1    LIG   0.0000
  22 H           -1.3659     1.8314     0.4969 H            1    LIG   0.0000
  23 H            2.8488     0.1626     1.4360 H            1    LIG   0.0000
  24 H            2.3411     2.1249     3.6899 H            1    LIG   0.0000
  25 H            3.4808     4.1117     4.4151 H            1    LIG   0.0000
  26 H            4.9081     5.9263     3.9609 H            1    LIG   0.0000
  27 H            6.0955     5.6041     2.8871 H            1    LIG   0.0000
  28 H            4.8098     6.5047     2.4370 H            1    LIG   0.0000
  29 H            5.1100     4.5422     0.6205 H            1    LIG   0.0000
  30 H            5.1124     3.3819    -1.6350 H            1    LIG   0.0000
  31 H            4.9270     1.4731    -4.7204 H            1    LIG   0.0000
  32 H            4.8273     3.0491    -4.3047 H            1    LIG   0.0000
  33 H            6.1127     2.1598    -3.8321 H            1    LIG   0.0000
  34 H            3.5054     0.0532    -3.5292 H            1    LIG   0.0000
  35 H            2.3585    -0.5388    -1.5042 H            1    LIG   0.0000
@<TRIPOS>BOND
   1        1        2 1
   2        2        3 1
   3        3        4 2
   4        3        5 1
   5        5        6 1
   6        6        7 ar
   7        7        8 ar
   8        8        9 ar
   9        9       10 1
  10        9       11 ar
  11       11       12 ar
  12       12        6 ar
  13       12       13 1
  14       13       14 ar
  15       14       15 ar
  16       15       16 1
  17       15       17 ar
  18       17       18 ar
  19       18       19 ar
  20       19       13 ar
  21       19        5 1
  22        1       20 1
  23        1       21 1
  24        1       22 1
  25        5       23 1
  26        7       24 1
  27        8       25 1
  28       10       26 1
  29       10       27 1
  30       10       28 1
  31       11       29 1
  32       14       30 1
  33       16       31 1
  34       16       32 1
  35       16       33 1
  36       17       34 1
  37       18       35 1

@<TRIPOS>MOLECULE

  35   37
SMALL
USER_CHARGES
@<TRIPOS>ATOM
   1 C1          -1.0706     1.0297    -0.0227 C.3          1    LIG   0.0000
   2 O2           0.3450     1.0329    -0.1340 O.3          1    LIG   0.0000
   3 C3           1.0000     1.0000     1.0000 C.2          1    LIG   0.0000
   4 O4           0.4000     0.9698     2.0388 O.2          1    LIG   0.0000
   5 C5           2.5190     1.0000     1.0000 C.3          1    LIG   0.0000
   6 C6           3.0733     1.9382    -0.0544 C.ar         1    LIG   0.0000
   7 C7           2.9202     3.3070    -0.2538 C.ar         1    LIG   0.0000
   8 C8           3.5798     3.9211    -1.3133 C.ar         1    LIG   0.0000
   9 C9           4.3788     3.1490    -2.1497 C.ar         1    LIG   0.0000
  10 C10          5.1106     3.7923    -3.3159 C.3          1    LIG   0.0000
  11 C11          4.5299     1.7815    -1.9446 C.ar         1    LIG   0.0000
  12 C12          3.8676     1.1716    -0.8843 C.ar         1    LIG   0.0000
  13 C13          3.8662    -0.2050    -0.4456 C.ar         1    LIG   0.0000
  14 C14          4.5369    -1.2943    -0.9933 C.ar         1    LIG   0.0000
  15 C15          4.3946    -2.5423    -0.3971 C.ar         1    LIG   0.0000
  16 C16          5.1281    -3.7315    -0.9953 C.3          1    LIG   0.0000
  17 C17          3.5985    -2.7204     0.7295 C.ar         1    LIG   0.0000
  18 C18          2.9335    -1.6240     1.2698 C.ar         1    LIG   0.0000
  19 C19          3.0738    -0.3750     0.6743 C.ar         1    LIG   0.0000
  20 H           -1.4769     1.0562    -0.9360 H            1    LIG   0.0000
  21 H           -1.3659     0.1991     0.4495 H            1    LIG   0.0000
  22 H           -1.3659     1.8314     0.4969 H            1    LIG   0.0000
  23 H            2.8488     1.2839     1.9003 H            1    LIG   0.0000
  24 H            2.3411     3.8443     0.3593 H            1    LIG   0.0000
  25 H            3.4808     4.9036    -1.4714 H            1    LIG   0.0000
  26 H            4.9081     4.7714    -3.3372 H            1    LIG   0.0000
  27 H            6.0955     3.6579    -3.2064 H            1    LIG   0.0000
  28 H            4.8098     3.3710    -4.1715 H            1    LIG   0.0000
  29 H            5.1100     1.2414    -2.5543 H            1    LIG   0.0000
  30 H            5.1124    -1.1813    -1.8033 H            1    LIG   0.0000
  31 H            4.9270    -4.5513    -0.4592 H            1    LIG   0.0000
  32 H            4.8273    -3.8683    -1.9391 H            1    LIG   0.0000
  33 H            6.1127    -3.5573    -0.9812 H            1    LIG   0.0000
  34 H            3.5054    -3.6248     1.1459 H            1    LIG   0.0000
  35 H            2.3585    -1.7334     2.0806 H            1    LIG   0.0000
@<TRIPOS>BOND
   1        1        2 1
   2        2        3 1
   3        3        4 2
   4        3        5 1
   5        5        6 1
   6        6        7 ar
   7        7        8 ar
   8        8        9 ar
   9        9       10 1
  10        9       11 ar
  11       11       12 ar
  12       12        6 ar
  13       12       13 1
  14       13       14 ar
  15       14       15 ar
  16       15       16 1
  17       15       17 ar
  18       17       18 ar
  19       18       19 ar
  20       19       13 ar
  21       19        5 1
  22        1       20 1
  23        1       21 1
  24        1       22 1
  25        5       23 1
  26        7       24 1
  27        8       25 1
  28       10       26 1
  29       10       27 1
  30       10       28 1
  31       11       29 1
  32       14       30 1
  33       16       31 1
  34       16       32 1
  35       16       33 1
  36       17       34 1
  37       18       35 1

@<TRIPOS>MOLECULE

  35   37
SMALL
USER_CHARGES
@<TRIPOS>ATOM
   1 C1          -1.0706     1.0297    -0.0227 C.3          1    LIG   0.0000
   2 O2           0.3450     1.0329    -0.1340 O.3          1    LIG   0.0000
   3 C3           1.0000     1.0000     1.0000 C.2          1    LIG   0.0000
   4 O4           0.4000     0.9698     2.0388 O.2          1    LIG   0.0000
   5 C5           2.5190     1.0000     1.0000 C.3          1    LIG   0.0000
   6 C6           3.0733     1.4440     2.3397 C.ar         1    LIG   0.0000
   7 C7           2.9202     0.9323     3.6248 C.ar         1    LIG   0.0000
   8 C8           3.5798     1.5429     4.6864 C.ar         1    LIG   0.0000
   9 C9           4.3788     2.6533     4.4359 C.ar         1    LIG   0.0000
  10 C10          5.1106     3.3415     5.5762 C.3          1    LIG   0.0000
  11 C11          4.5299     3.1593     3.1491 C.ar         1    LIG   0.0000
  12 C12          3.8676     2.5461     2.0908 C.ar         1    LIG   0.0000
  13 C13          3.8662     2.8544     0.6792 C.ar         1    LIG   0.0000
  14 C14          4.5369     3.8734     0.0097 C.ar         1    LIG   0.0000
  15 C15          4.3946     3.9811    -1.3692 C.ar         1    LIG   0.0000
  16 C16          5.1281     5.0938    -2.0999 C.3          1    LIG   0.0000
  17 C17          3.5985     3.0944    -2.0867 C.ar         1    LIG   0.0000
  18 C18          2.9335     2.0784    -1.4073 C.ar         1    LIG   0.0000
  19 C19          3.0738     1.9696    -0.0279 C.ar         1    LIG   0.0000
  20 H           -1.4769     1.0562    -0.9360 H            1    LIG   0.0000
  21 H           -1.3659     0.1991     0.4495 H            1    LIG   0.0000
  22 H           -1.3659     1.8314     0.4969 H            1    LIG   0.0000
  23 H            2.8488     0.0783     0.7957 H            1    LIG   0.0000
  24 H            2.3411     0.1327     3.7836 H            1    LIG   0.0000
  25 H            3.4808     1.1885     5.6163 H            1    LIG   0.0000
  26 H            4.9081     2.8705     6.4347 H            1    LIG   0.0000
  27 H            6.0955     3.3139     5.4051 H            1    LIG   0.0000
  28 H            4.8098     4.2931     5.6391 H            1    LIG   0.0000
  29 H            5.1100     3.9574     2.9862 H            1    LIG   0.0000
  30 H            5.1124     4.5184     0.5126 H            1    LIG   0.0000
  31 H            4.9270     5.0394    -3.0780 H            1    LIG   0.0000
  32 H            4.8273     5.9795    -1.7465 H            1    LIG   0.0000
  33 H            6.1127     4.9944    -1.9561 H            1    LIG   0.0000
  34 H            3.5054     3.1860    -3.0781 H            1    LIG   0.0000
  35 H            2.3585     1.4309    -1.9075 H            1    LIG   0.0000
@<TRIPOS>BOND
   1        1        2 1
   2        2        3 1
   3        3        4 2
   4        3        5 1
   5        5        6 1
   6        6        7 ar
   7        7        8 ar
   8        8        9 ar
   9        9       10 1
  10        9       11 ar
  11       11       12 ar
  12       12        6 ar
  13       12       13 1
  14       13       14 ar
  15       14       15 ar
  16       15       16 1
  17       15       17 ar
  18       17       18 ar
  19       18       19 ar
  20       19       13 ar
  21       19        5 1
  22        1       20 1
  23        1       21 1
  24        1       22 1
  25        5       23 1
  26        7       24 1
  27        8       25 1
  28       10       26 1
  29       10       27 1
  30       10       28 1
  31       11       29 1
  32       14       30 1
  33       16       31 1
  34       16       32 1
  35       16       33 1
  36       17       34 1
  37       18       35 1

@<TRIPOS>MOLECULE

  35   37
SMALL
USER_CHARGES
@<TRIPOS>ATOM
   1 C1          -1.0706     1.0297    -0.0227 C.3          1    LIG   0.0000
   2 O2           0.3450     1.0329    -0.1340 O.3          1    LIG   0.0000
   3 C3           1.0000     1.0000     1.0000 C.2          1    LIG   0.0000
   4 O4           0.4000     0.9698     2.0388 O.2          1    LIG   0.0000
   5 C5           2.5190     1.0000     1.0000 C.3          1    LIG   0.0000
   6 C6           3.0733     1.0410    -0.4108 C.ar         1    LIG   0.0000
   7 C7           2.9202     1.9613    -1.4434 C.ar         1    LIG   0.0000
   8 C8           3.5798     1.7507    -2.6498 C.ar         1    LIG   0.0000
   9 C9           4.3788     0.6216    -2.7942 C.ar         1    LIG   0.0000
  10 C10          5.1106     0.3648    -4.1011 C.3          1    LIG   0.0000
  11 C11          4.5299    -0.2941    -1.7580 C.ar         1    LIG   0.0000
  12 C12          3.8676    -0.0797    -0.5538 C.ar         1    LIG   0.0000
  13 C13          3.8662    -0.8523     0.6672 C.ar         1    LIG   0.0000
  14 C14          4.5369    -2.0388     0.9478 C.ar         1    LIG   0.0000
  15 C15          4.3946    -2.6116     2.2067 C.ar         1    LIG   0.0000
  16 C16          5.1281    -3.9071     2.5128 C.3          1    LIG   0.0000
  17 C17          3.5985    -2.0238     3.1842 C.ar         1    LIG   0.0000
  18 C18          2.9335    -0.8367     2.8933 C.ar         1    LIG   0.0000
  19 C19          3.0738    -0.2627     1.6343 C.ar         1    LIG   0.0000
  20 H           -1.4769     1.0562    -0.9360 H            1    LIG   0.0000
  21 H           -1.3659     0.1991     0.4495 H            1    LIG   0.0000
  22 H           -1.3659     1.8314     0.4969 H            1    LIG   0.0000
  23 H            2.8488     1.7962     1.5072 H            1    LIG   0.0000
  24 H            2.3411     2.7671    -1.3191 H            1    LIG   0.0000
  25 H            3.4808     2.4017    -3.4024 H            1    LIG   0.0000
  26 H            4.9081     1.1011    -4.7467 H            1    LIG   0.0000
  27 H            6.0955     0.3323    -3.9308 H            1    LIG   0.0000
  28 H            4.8098    -0.5079    -4.4857 H            1    LIG   0.0000
  29 H            5.1100    -1.0998    -1.8779 H            1    LIG   0.0000
  30 H            5.1124    -2.4729     0.2547 H            1    LIG   0.0000
  31 H            4.9270    -4.1905     3.4505 H            1    LIG   0.0000
  32 H            4.8273    -4.6186     1.8778 H            1    LIG   0.0000
  33 H            6.1127    -3.7646     2.4117 H            1    LIG   0.0000
  34 H            3.5054    -2.4490     4.0845 H            1    LIG   0.0000
  35 H            2.3585    -0.3993     3.5848 H            1    LIG   0.0000
@<TRIPOS>BOND
   1        1        2 1
   2        2        3 1
   3        3        4 2
   4        3        5 1
   5        5        6 1
   6        6        7 ar
   7        7        8 ar
   8        8        9 ar
   9        9       10 1
  10        9       11 ar
  11       11       12 ar
  12       12        6 ar
  13       12       13 1
  14       13       14 ar
  15       14       15 ar
  16       15       16 1
  17       15       17 ar
  18       17       18 ar
  19       18       19 ar
  20       19       13 ar
  21       19        5 1
  22        1       20 1
  23        1       21 1
  24        1       22 1
  25        5       23 1
  26        7       24 1
  27        8       25 1
  28       10       26 1
  29       10       27 1
  30       10       28 1
  31       11       29 1
  32       14       30 1
  33       16       31 1
  34       16       32 1
  35       16       33 1
  36       17       34 1
  37       18       35 1

@<TRIPOS>MOLECULE

  35   37
SMALL
USER_CHARGES
@<TRIPOS>ATOM
   1 C1          -1.0706     1.0297    -0.0227 C.3          1    LIG   0.0000
   2 O2           0.3450     1.0329    -0.1340 O.3          1    LIG   0.0000
   3 C3           1.0000     1.0000     1.0000 C.2          1    LIG   0.0000
   4 O4           0.4000     0.9698     2.0388 O.2          1    LIG   0.0000
   5 C5           2.5190     1.0000     1.0000 C.3          1    LIG   0.0000
   6 C6           3.0733    -0.3822     0.7147 C.ar         1    LIG   0.0000
   7 C7           2.9202    -1.2393    -0.3710 C.ar         1    LIG   0.0000
   8 C8           3.5798    -2.4640    -0.3731 C.ar         1    LIG   0.0000
   9 C9           4.3788    -2.8022     0.7138 C.ar         1    LIG   0.0000
  10 C10          5.1106    -4.1339     0.7397 C.3          1    LIG   0.0000
  11 C11          4.5299    -1.9408     1.7955 C.ar         1    LIG   0.0000
  12 C12          3.8676    -0.7177     1.7935 C.ar         1    LIG   0.0000
  13 C13          3.8662     0.3506     2.7663 C.ar         1    LIG   0.0000
  14 C14          4.5369     0.4209     3.9836 C.ar         1    LIG   0.0000
  15 C15          4.3946     1.5612     4.7663 C.ar         1    LIG   0.0000
  16 C16          5.1281     1.6378     6.0953 C.3          1    LIG   0.0000
  17 C17          3.5985     2.6259     4.3572 C.ar         1    LIG   0.0000
  18 C18          2.9335     2.5456     3.1376 C.ar         1    LIG   0.0000
  19 C19          3.0738     1.4054     2.3537 C.ar         1    LIG   0.0000
  20 H           -1.4769     1.0562    -0.9360 H            1    LIG   0.0000
  21 H           -1.3659     0.1991     0.4495 H            1    LIG   0.0000
  22 H           -1.3659     1.8314     0.4969 H            1    LIG   0.0000
  23 H            2.8488     1.6378     0.3039 H            1    LIG   0.0000
  24 H            2.3411    -0.9770    -1.1429 H            1    LIG   0.0000
  25 H            3.4808    -3.0921    -1.1449 H            1    LIG   0.0000
  26 H            4.9081    -4.6419    -0.0975 H            1    LIG   0.0000
  27 H            6.0955    -3.9718     0.8014 H            1    LIG   0.0000
  28 H            4.8098    -4.6642     1.5324 H            1    LIG   0.0000
  29 H            5.1100    -2.1988     2.5681 H            1    LIG   0.0000
  30 H            5.1124    -0.3370     4.2907 H            1    LIG   0.0000
  31 H            4.9270     2.5120     6.5372 H            1    LIG   0.0000
  32 H            4.8273     0.8888     6.6857 H            1    LIG   0.0000
  33 H            6.1127     1.5628     5.9373 H            1    LIG   0.0000
  34 H            3.5054     3.4388     4.9322 H            1    LIG   0.0000
  35 H            2.3585     3.3025     2.8269 H            1    LIG   0.0000
@<TRIPOS>BOND
   1        1        2 1
   2        2        3 1
   3        3        4 2
   4        3        5 1
   5        5        6 1
   6        6        7 ar
   7        7        8 ar
   8        8        9 ar
   9        9       10 1
  10        9       11 ar
  11       11       12 ar
  12       12        6 ar
  13       12       13 1
  14       13       14 ar
  15       14       15 ar
  16       15       16 1
  17       15       17 ar
  18       17       18 ar
  19       18       19 ar
  20       19       13 ar
  21       19        5 1
  22        1       20 1
  23        1       21 1
  24        1       22 1
  25        5       23 1
  26        7       24 1
  27        8       25 1
  28       10       26 1
  29       10       27 1
  30       10       28 1
  31       11       29 1
  32       14       30 1
  33       16       31 1
  34       16       32 1
  35       16       33 1
  36       17       34 1
  37       18       35 1

@<TRIPOS>MOLECULE

  35   37
SMALL
USER_CHARGES
@<TRIPOS>ATOM
   1 C1          -1.0706     1.0297    -0.0227 C.3          1    LIG   0.0000
   2 O2           0.3450     1.0329    -0.1340 O.3          1    LIG   0.0000
   3 C3           1.0000     1.0000     1.0000 C.2          1    LIG   0.0000
   4 O4           0.4000     0.9698     2.0388 O.2          1    LIG   0.0000
   5 C5           2.5190     1.0000     1.0000 C.3          1    LIG   0.0000
   6 C6           3.0733     0.1245    -0.1071 C.ar         1    LIG   0.0000
   7 C7           2.9202     0.1659    -1.4897 C.ar         1    LIG   0.0000
   8 C8           3.5798    -0.7710    -2.2784 C.ar         1    LIG   0.0000
   9 C9           4.3788    -1.7287    -1.6633 C.ar         1    LIG   0.0000
  10 C10          5.1106    -2.7655    -2.4994 C.3          1    LIG   0.0000
  11 C11          4.5299    -1.7641    -0.2810 C.ar         1    LIG   0.0000
  12 C12          3.8676    -0.8259     0.5038 C.ar         1    LIG   0.0000
  13 C13          3.8662    -0.6328     1.9356 C.ar         1    LIG   0.0000
  14 C14          4.5369    -1.3614     2.9133 C.ar         1    LIG   0.0000
  15 C15          4.3946    -0.9910     4.2459 C.ar         1    LIG   0.0000
  16 C16          5.1281    -1.7866     5.3131 C.3          1    LIG   0.0000
  17 C17          3.5985     0.0876     4.6169 C.ar         1    LIG   0.0000
  18 C18          2.9335     0.8100     3.6310 C.ar         1    LIG   0.0000
  19 C19          3.0738     0.4405     2.2976 C.ar         1    LIG   0.0000
  20 H           -1.4769     1.0562    -0.9360 H            1    LIG   0.0000
  21 H           -1.3659     0.1991     0.4495 H            1    LIG   0.0000
  22 H           -1.3659     1.8314     0.4969 H            1    LIG   0.0000
  23 H            2.8488     1.9360     0.8767 H            1    LIG   0.0000
  24 H            2.3411     0.8630    -1.9124 H            1    LIG   0.0000
  25 H            3.4808    -0.7560    -3.2734 H            1    LIG   0.0000
  26 H            4.9081    -2.6165    -3.4673 H            1    LIG   0.0000
  27 H            6.0955    -2.6810    -2.3480 H            1    LIG   0.0000
  28 H            4.8098    -3.6812    -2.2330 H            1    LIG   0.0000
  29 H            5.1100    -2.4584     0.1451 H            1    LIG   0.0000
  30 H            5.1124    -2.1395     2.6614 H            1    LIG   0.0000
  31 H            4.9270    -1.4010     6.2136 H            1    LIG   0.0000
  32 H            4.8273    -2.7399     5.2840 H            1    LIG   0.0000
  33 H            6.1127    -1.7425     5.1440 H            1    LIG   0.0000
  34 H            3.5054     0.3406     5.5798 H            1    LIG   0.0000
  35 H            2.3585     1.5895     3.8795 H            1    LIG   0.0000
@<TRIPOS>BOND
   1        1        2 1
   2        2        3 1
   3        3        4 2
   4        3        5 1
   5        5        6 1
   6        6        7 ar
   7        7        8 ar
   8        8        9 ar
   9        9       10 1
  10        9       11 ar
  11       11       12 ar
  12       12        6 ar
  13       12       13 1
  14       13       14 ar
  15       14       15 ar
  16       15       16 1
  17       15       17 ar
  18       17       18 ar
  19       18       19 ar
  20       19       13 ar
  21       19        5 1
  22        1       20 1
  23        1       21 1
  24        1       22 1
  25        5       23 1
  26        7       24 1
  27        8       25 1
  28       10       26 1
  29       10       27 1
  30       10       28 1
  31       11       29 1
  32       14       30 1
  33       16       31 1
  34       16       32 1
  35       16       33 1
  36       17       34 1
  37       18       35 1

@<TRIPOS>MOLECULE

  35   37
SMALL
USER_CHARGES
@<TRIPOS>ATOM
   1 C1          -1.0706     1.0297    -0.0227 C.3          1    LIG   0.0000
   2 O2           0.3450     1.0329    -0.1340 O.3          1    LIG   0.0000
   3 C3           1.0000     1.0000     1.0000 C.2          1    LIG   0.0000
   4 O4           0.4000     0.9698     2.0388 O.2          1    LIG   0.0000
   5 C5           2.5190     1.0000     1.0000 C.3          1    LIG   0.0000
   6 C6           3.0733    -0.2423     1.6699 C.ar         1    LIG   0.0000
   7 C7           2.9202    -1.5967     1.3891 C.ar         1    LIG   0.0000
   8 C8           3.5798    -2.5361     2.1748 C.ar         1    LIG   0.0000
   9 C9           4.3788    -2.0966     3.2248 C.ar         1    LIG   0.0000
  10 C10          5.1106    -3.1001     4.1006 C.3          1    LIG   0.0000
  11 C11          4.5299    -0.7415     3.4997 C.ar         1    LIG   0.0000
  12 C12          3.8676     0.1942     2.7120 C.ar         1    LIG   0.0000
  13 C13          3.8662     1.6379     2.7705 C.ar         1    LIG   0.0000
  14 C14          4.5369     2.4742     3.6578 C.ar         1    LIG   0.0000
  15 C15          4.3946     3.8508     3.5244 C.ar         1    LIG   0.0000
  16 C16          5.1281     4.7637     4.4933 C.3          1    LIG   0.0000
  17 C17          3.5985     4.4035     2.5266 C.ar         1    LIG   0.0000
  18 C18          2.9335     3.5580     1.6440 C.ar         1    LIG   0.0000
  19 C19          3.0738     2.1807     1.7764 C.ar         1    LIG   0.0000
  20 H           -1.4769     1.0562    -0.9360 H            1    LIG   0.0000
  21 H           -1.3659     0.1991     0.4495 H            1    LIG   0.0000
  22 H           -1.3659     1.8314     0.4969 H            1    LIG   0.0000
  23 H            2.8488     1.0411     0.0568 H            1    LIG   0.0000
  24 H            2.3411    -1.8919     0.6292 H            1    LIG   0.0000
  25 H            3.4808    -3.5134     1.9873 H            1    LIG   0.0000
  26 H            4.9081    -4.0274     3.7858 H            1    LIG   0.0000
  27 H            6.0955    -2.9363     4.0437 H            1    LIG   0.0000
  28 H            4.8098    -2.9968     5.0487 H            1    LIG   0.0000
  29 H            5.1100    -0.4424     4.2574 H            1    LIG   0.0000
  30 H            5.1124     2.0910     4.3803 H            1    LIG   0.0000
  31 H            4.9270     5.7175     4.2699 H            1    LIG   0.0000
  32 H            4.8273     4.5695     5.4270 H            1    LIG   0.0000
  33 H            6.1127     4.6048     4.4204 H            1    LIG   0.0000
  34 H            3.5054     5.3958     2.4446 H            1    LIG   0.0000
  35 H            2.3585     3.9381     0.9194 H            1    LIG   0.0000
@<TRIPOS>BOND
   1        1        2 1
   2        2        3 1
   3        3        4 2
   4        3        5 1
   5        5        6 1
   6        6        7 ar
   7        7        8 ar
   8        8        9 ar
   9        9       10 1
  10        9       11 ar
  11       11       12 ar
  12       12        6 ar
  13       12       13 1
  14       13       14 ar
  15       14       15 ar
  16       15       16 1
  17       15       17 ar
  18       17       18 ar
  19       18       19 ar
  20       19       13 ar
  21       19        5 1
  22        1       20 1
  23        1       21 1
  24        1       22 1
  25        5       23 1
  26        7       24 1
  27        8       25 1
  28       10       26 1
  29       10       27 1
  30       10       28 1
  31       11       29 1
  32       14       30 1
  33       16       31 1
  34       16       32 1
  35       16       33 1
  36       17       34 1
  37       18       35 1

@<TRIPOS>MOLECULE

  35   37
SMALL
USER_CHARGES
@<TRIPOS>ATOM
   1 C1          -1.0706     1.0297    -0.0227 C.3          1    LIG   0.0000
   2 O2           0.3450     1.0329    -0.1340 O.3          1    LIG   0.0000
   3 C3           1.0000     1.0000     1.0000 C.2          1    LIG   0.0000
   4 O4           0.4000     0.9698     2.0388 O.2          1    LIG   0.0000
   5 C5           2.5190     1.0000     1.0000 C.3          1    LIG   0.0000
   6 C6           3.0733     0.4790     2.3117 C.ar         1    LIG   0.0000
   7 C7           2.9202    -0.7390     2.9672 C.ar         1    LIG   0.0000
   8 C8           3.5798    -0.9537     4.1729 C.ar         1    LIG   0.0000
   9 C9           4.3788     0.0579     4.6948 C.ar         1    LIG   0.0000
  10 C10          5.1106    -0.1478     6.0107 C.3          1    LIG   0.0000
  11 C11          4.5299     1.2727     4.0343 C.ar         1    LIG   0.0000
  12 C12          3.8676     1.4832     2.8294 C.ar         1    LIG   0.0000
  13 C13          3.8662     2.6267     1.9463 C.ar         1    LIG   0.0000
  14 C14          4.5369     3.8377     2.0884 C.ar         1    LIG   0.0000
  15 C15          4.3946     4.8065     1.1013 C.ar         1    LIG   0.0000
  16 C16          5.1281     6.1286     1.2567 C.3          1    LIG   0.0000
  17 C17          3.5985     4.5885    -0.0183 C.ar         1    LIG   0.0000
  18 C18          2.9335     3.3735    -0.1510 C.ar         1    LIG   0.0000
  19 C19          3.0738     2.4035     0.8358 C.ar         1    LIG   0.0000
  20 H           -1.4769     1.0562    -0.9360 H            1    LIG   0.0000
  21 H           -1.3659     0.1991     0.4495 H            1    LIG   0.0000
  22 H           -1.3659     1.8314     0.4969 H            1    LIG   0.0000
  23 H            2.8488     0.4253     0.2511 H            1    LIG   0.0000
  24 H            2.3411    -1.4537     2.5749 H            1    LIG   0.0000
  25 H            3.4808    -1.8229     4.6575 H            1    LIG   0.0000
  26 H            4.9081    -1.0605     6.3656 H            1    LIG   0.0000
  27 H            6.0955    -0.0590     5.8618 H            1    LIG   0.0000
  28 H            4.8098     0.5407     6.6706 H            1    LIG   0.0000
  29 H            5.1100     1.9888     4.4225 H            1    LIG   0.0000
  30 H            5.1124     4.0085     2.8882 H            1    LIG   0.0000
  31 H            4.9270     6.7156     0.4725 H            1    LIG   0.0000
  32 H            4.8273     6.5800     2.0968 H            1    LIG   0.0000
  33 H            6.1127     5.9601     1.3031 H            1    LIG   0.0000
  34 H            3.5054     5.2959    -0.7189 H            1    LIG   0.0000
  35 H            2.3585     3.1990    -0.9503 H            1    LIG   0.0000
@<TRIPOS>BOND
   1        1        2 1
   2        2        3 1
   3        3        4 2
   4        3        5 1
   5        5        6 1
   6        6        7 ar
   7        7        8 ar
   8        8        9 ar
   9        9       10 1
  10        9       11 ar
  11       11       12 ar
  12       12        6 ar
  13       12       13 1
  14       13       14 ar
  15       14       15 ar
  16       15       16 1
  17       15       17 ar
  18       17       18 ar
  19       18       19 ar
  20       19       13 ar
  21       19        5 1
  22        1       20 1
  23        1       21 1
  24        1       22 1
  25        5       23 1
  26        7       24 1
  27        8       25 1
  28       10       26 1
  29       10       27 1
  30       10       28 1
  31       11       29 1
  32       14       30 1
  33       16       31 1
  34       16       32 1
  35       16       33 1
  36       17       34 1
  37       18       35 1

@<TRIPOS>MOLECULE

  35   37
SMALL
USER_CHARGES
@<TRIPOS>ATOM
   1 C1          -1.0706     1.0297    -0.0227 C.3          1    LIG   0.0000
   2 O2           0.3450     1.0329    -0.1340 O.3          1    LIG   0.0000
   3 C3           1.0000     1.0000     1.0000 C.2          1    LIG   0.0000
   4 O4           0.4000     0.9698     2.0388 O.2          1    LIG   0.0000
   5 C5           2.5190     1.0000     1.0000 C.3          1    LIG   0.0000
   6 C6           3.0733     0.9590     2.4108 C.ar         1    LIG   0.0000
   7 C7           2.9202     0.0387     3.4434 C.ar         1    LIG   0.0000
   8 C8           3.5798     0.2493     4.6498 C.ar         1    LIG   0.0000
   9 C9           4.3788     1.3784     4.7942 C.ar         1    LIG   0.0000
  10 C10          5.1106     1.6352     6.1011 C.3          1    LIG   0.0000
  11 C11          4.5299     2.2941     3.7580 C.ar         1    LIG   0.0000
  12 C12          3.8676     2.0797     2.5538 C.ar         1    LIG   0.0000
  13 C13          3.8662     2.8523     1.3328 C.ar         1    LIG   0.0000
  14 C14          4.5369     4.0388     1.0522 C.ar         1    LIG   0.0000
  15 C15          4.3946     4.6116    -0.2067 C.ar         1    LIG   0.0000
  16 C16          5.1281     5.9071    -0.5128 C.3          1    LIG   0.0000
  17 C17          3.5985     4.0238    -1.1842 C.ar         1    LIG   0.0000
  18 C18          2.9335     2.8367    -0.8933 C.ar         1    LIG   0.0000
  19 C19          3.0738     2.2627     0.3657 C.ar         1    LIG   0.0000
  20 H           -1.4769     1.0562    -0.9360 H            1    LIG   0.0000
  21 H           -1.3659     0.1991     0.4495 H            1    LIG   0.0000
  22 H           -1.3659     1.8314     0.4969 H            1    LIG   0.0000
  23 H            2.8488     0.2038     0.4928 H            1    LIG   0.0000
  24 H            2.3411    -0.7671     3.3191 H            1    LIG   0.0000
  25 H            3.4808    -0.4017     5.4024 H            1    LIG   0.0000
  26 H            4.9081     0.8989     6.7467 H            1    LIG   0.0000
  27 H            6.0955     1.6677     5.9308 H            1    LIG   0.0000
  28 H            4.8098     2.5079     6.4857 H            1    LIG   0.0000
  29 H            5.1100     3.0998     3.8779 H            1    LIG   0.0000
  30 H            5.1124     4.4729     1.7453 H            1    LIG   0.0000
  31 H            4.9270     6.1905    -1.4505 H            1    LIG   0.0000
  32 H            4.8273     6.6186     0.1222 H            1    LIG   0.0000
  33 H            6.1127     5.7646    -0.4117 H            1    LIG   0.0000
  34 H            3.5054     4.4490    -2.0845 H            1    LIG   0.0000
  35 H            2.3585     2.3993    -1.5848 H            1    LIG   0.0000
@<TRIPOS>BOND
   1        1        2 1
   2        2        3 1
   3        3        4 2
   4        3        5 1
   5        5        6 1
   6        6        7 ar
   7        7        8 ar
   8        8        9 ar
   9        9       10 1
  10        9       11 ar
  11       11       12 ar
  12       12        6 ar
  13       12       13 1
  14       13       14 ar
  15       14       15 ar
  16       15       16 1
  17       15       17 ar
  18       17       18 ar
  19       18       19 ar
  20       19       13 ar
  21       19        5 1
  22        1       20 1
  23        1       21 1
  24        1       22 1
  25        5       23 1
  26        7       24 1
  27        8       25 1
  28       10       26 1
  29       10       27 1
  30       10       28 1
  31       11       29 1
  32       14       30 1
  33       16       31 1
  34       16       32 1
  35       16       33 1
  36       17       34 1
  37       18       35 1

