@<TRIPOS>MOLECULE
*****
 35 37 0 0 0
SMALL
USER_CHARGES

@<TRIPOS>ATOM
      1 C1         -1.0706    1.0297   -0.0227 C.3     1  LIG1        0.0000
      2 O2          0.3450    1.0329   -0.1340 O.3     1  LIG1        0.0000
      3 C3          1.0000    1.0000    1.0000 C.2     1  LIG1        0.0000
      4 O4          0.4000    0.9698    2.0388 O.2     1  LIG1        0.0000
      5 C5          2.5190    1.0000    1.0000 C.3     1  LIG1        0.0000
      6 C6          3.0733    0.1245   -0.1071 C.3     1  LIG1        0.0000
      7 C7          2.9202    0.1659   -1.4897 C.3     1  LIG1        0.0000
      8 C8          3.5798   -0.7710   -2.2784 C.3     1  LIG1        0.0000
      9 C9          4.3788   -1.7287   -1.6633 C.3     1  LIG1        0.0000
     10 C10         5.1106   -2.7655   -2.4994 C.3     1  LIG1        0.0000
     11 C11         4.5299   -1.7641   -0.2810 C.3     1  LIG1        0.0000
     12 C12         3.8676   -0.8259    0.5038 C.3     1  LIG1        0.0000
     13 C13         3.8662   -0.6328    1.9356 C.3     1  LIG1        0.0000
     14 C14         4.5369   -1.3614    2.9133 C.3     1  LIG1        0.0000
     15 C15         4.3946   -0.9910    4.2459 C.3     1  LIG1        0.0000
     16 C16         5.1281   -1.7866    5.3131 C.3     1  LIG1        0.0000
     17 C17         3.5985    0.0876    4.6169 C.3     1  LIG1        0.0000
     18 C18         2.9335    0.8100    3.6310 C.3     1  LIG1        0.0000
     19 C19         3.0738    0.4405    2.2976 C.3     1  LIG1        0.0000
     20 H          -1.4769    1.0562   -0.9360 H       1  LIG1        0.0000
     21 H          -1.3659    0.1991    0.4495 H       1  LIG1        0.0000
     22 H          -1.3659    1.8314    0.4969 H       1  LIG1        0.0000
     23 H           2.8488    1.9360    0.8767 H       1  LIG1        0.0000
     24 H           2.3411    0.8630   -1.9124 H       1  LIG1        0.0000
     25 H           3.4808   -0.7560   -3.2734 H       1  LIG1        0.0000
     26 H           4.9081   -2.6165   -3.4673 H       1  LIG1        0.0000
     27 H           6.0955   -2.6810   -2.3480 H       1  LIG1        0.0000
     28 H           4.8098   -3.6812   -2.2330 H       1  LIG1        0.0000
     29 H           5.1100   -2.4584    0.1451 H       1  LIG1        0.0000
     30 H           5.1124   -2.1395    2.6614 H       1  LIG1        0.0000
     31 H           4.9270   -1.4010    6.2136 H       1  LIG1        0.0000
     32 H           4.8273   -2.7399    5.2840 H       1  LIG1        0.0000
     33 H           6.1127   -1.7425    5.1440 H       1  LIG1        0.0000
     34 H           3.5054    0.3406    5.5798 H       1  LIG1        0.0000
     35 H           2.3585    1.5895    3.8795 H       1  LIG1        0.0000
@<TRIPOS>BOND
     1     1     2    1
     2     2     3    1
     3     3     4    2
     4     3     5    1
     5     5     6    1
     6     6     7   ar
     7     7     8   ar
     8     8     9   ar
     9     9    10    1
    10     9    11   ar
    11    11    12   ar
    12    12     6   ar
    13    12    13    1
    14    13    14   ar
    15    14    15   ar
    16    15    16    1
    17    15    17   ar
    18    17    18   ar
    19    18    19   ar
    20    19    13   ar
    21    19     5    1
    22     1    20    1
    23     1    21    1
    24     1    22    1
    25     5    23    1
    26     7    24    1
    27     8    25    1
    28    10    26    1
    29    10    27    1
    30    10    28    1
    31    11    29    1
    32    14    30    1
    33    16    31    1
    34    16    32    1
    35    16    33    1
    36    17    34    1
    37    18    35    1
