@<TRIPOS>MOLECULE
*****
 35 37 0 0 0
SMALL
USER_CHARGES

@<TRIPOS>ATOM
      1 C1         -1.0706    1.0297   -0.0227 C.3     1  LIG1        0.0000
      2 O2          0.3450    1.0329   -0.1340 O.3     1  LIG1        0.0000
      3 C3          1.0000    1.0000    1.0000 C.2     1  LIG1        0.0000
      4 O4          0.4000    0.9698    2.0388 O.2     1  LIG1        0.0000
      5 C5          2.5190    1.0000    1.0000 C.3     1  LIG1        0.0000
      6 C6          3.0733    2.2013    1.7409 C.3     1  LIG1        0.0000
      7 C7          2.9202    2.6354    3.0542 C.3     1  LIG1        0.0000
      8 C8          3.5798    3.7854    3.4750 C.3     1  LIG1        0.0000
      9 C9          4.3788    4.4750    2.5694 C.3     1  LIG1        0.0000
     10 C10         5.1106    5.7352    3.0005 C.3     1  LIG1        0.0000
     11 C11         4.5299    4.0355    1.2583 C.3     1  LIG1        0.0000
     12 C12         3.8676    2.8855    0.8418 C.3     1  LIG1        0.0000
     13 C13         3.8662    2.2144   -0.4377 C.3     1  LIG1        0.0000
     14 C14         4.5369    2.5646   -1.6056 C.3     1  LIG1        0.0000
     15 C15         4.3946    1.7607   -2.7311 C.3     1  LIG1        0.0000
     16 C16         5.1281    2.1434   -4.0061 C.3     1  LIG1        0.0000
     17 C17         3.5985    0.6203   -2.7108 C.3     1  LIG1        0.0000
     18 C18         2.9335    0.2787   -1.5373 C.3     1  LIG1        0.0000
     19 C19         3.0738    1.0820   -0.4107 C.3     1  LIG1        0.0000
     20 H          -1.4769    1.0562   -0.9360 H       1  LIG1        0.0000
     21 H          -1.3659    0.1991    0.4495 H       1  LIG1        0.0000
     22 H          -1.3659    1.8314    0.4969 H       1  LIG1        0.0000
     23 H           2.8488    0.1626    1.4360 H       1  LIG1        0.0000
     24 H           2.3411    2.1249    3.6899 H       1  LIG1        0.0000
     25 H           3.4808    4.1117    4.4151 H       1  LIG1        0.0000
     26 H           4.9081    5.9263    3.9609 H       1  LIG1        0.0000
     27 H           6.0955    5.6041    2.8871 H       1  LIG1        0.0000
     28 H           4.8098    6.5047    2.4370 H       1  LIG1        0.0000
     29 H           5.1100    4.5422    0.6205 H       1  LIG1        0.0000
     30 H           5.1124    3.3819   -1.6350 H       1  LIG1        0.0000
     31 H           4.9270    1.4731   -4.7204 H       1  LIG1        0.0000
     32 H           4.8273    3.0491   -4.3047 H       1  LIG1        0.0000
     33 H           6.1127    2.1598   -3.8321 H       1  LIG1        0.0000
     34 H           3.5054    0.0532   -3.5292 H       1  LIG1        0.0000
     35 H           2.3585   -0.5388   -1.5042 H       1  LIG1        0.0000
@<TRIPOS>BOND
     1     1     2    1
     2     2     3    1
     3     3     4    2
     4     3     5    1
     5     5     6    1
     6     6     7   ar
     7     7     8   ar
     8     8     9   ar
     9     9    10    1
    10     9    11   ar
    11    11    12   ar
    12    12     6   ar
    13    12    13    1
    14    13    14   ar
    15    14    15   ar
    16    15    16    1
    17    15    17   ar
    18    17    18   ar
    19    18    19   ar
    20    19    13   ar
    21    19     5    1
    22     1    20    1
    23     1    21    1
    24     1    22    1
    25     5    23    1
    26     7    24    1
    27     8    25    1
    28    10    26    1
    29    10    27    1
    30    10    28    1
    31    11    29    1
    32    14    30    1
    33    16    31    1
    34    16    32    1
    35    16    33    1
    36    17    34    1
    37    18    35    1
