@<TRIPOS>MOLECULE
*****
 35 37 0 0 0
SMALL
USER_CHARGES

@<TRIPOS>ATOM
      1 C1         -1.0706    1.0297   -0.0227 C.3     1  LIG1        0.0000
      2 O2          0.3450    1.0329   -0.1340 O.3     1  LIG1        0.0000
      3 C3          1.0000    1.0000    1.0000 C.2     1  LIG1        0.0000
      4 O4          0.4000    0.9698    2.0388 O.2     1  LIG1        0.0000
      5 C5          2.5190    1.0000    1.0000 C.3     1  LIG1        0.0000
      6 C6          3.0733    1.4440    2.3397 C.3     1  LIG1        0.0000
      7 C7          2.9202    0.9323    3.6248 C.3     1  LIG1        0.0000
      8 C8          3.5798    1.5429    4.6864 C.3     1  LIG1        0.0000
      9 C9          4.3788    2.6533    4.4359 C.3     1  LIG1        0.0000
     10 C10         5.1106    3.3415    5.5762 C.3     1  LIG1        0.0000
     11 C11         4.5299    3.1593    3.1491 C.3     1  LIG1        0.0000
     12 C12         3.8676    2.5461    2.0908 C.3     1  LIG1        0.0000
     13 C13         3.8662    2.8544    0.6792 C.3     1  LIG1        0.0000
     14 C14         4.5369    3.8734    0.0097 C.3     1  LIG1        0.0000
     15 C15         4.3946    3.9811   -1.3692 C.3     1  LIG1        0.0000
     16 C16         5.1281    5.0938   -2.0999 C.3     1  LIG1        0.0000
     17 C17         3.5985    3.0944   -2.0867 C.3     1  LIG1        0.0000
     18 C18         2.9335    2.0784   -1.4073 C.3     1  LIG1        0.0000
     19 C19         3.0738    1.9696   -0.0279 C.3     1  LIG1        0.0000
     20 H          -1.4769    1.0562   -0.9360 H       1  LIG1        0.0000
     21 H          -1.3659    0.1991    0.4495 H       1  LIG1        0.0000
     22 H          -1.3659    1.8314    0.4969 H       1  LIG1        0.0000
     23 H           2.8488    0.0783    0.7957 H       1  LIG1        0.0000
     24 H           2.3411    0.1327    3.7836 H       1  LIG1        0.0000
     25 H           3.4808    1.1885    5.6163 H       1  LIG1        0.0000
     26 H           4.9081    2.8705    6.4347 H       1  LIG1        0.0000
     27 H           6.0955    3.3139    5.4051 H       1  LIG1        0.0000
     28 H           4.8098    4.2931    5.6391 H       1  LIG1        0.0000
     29 H           5.1100    3.9574    2.9862 H       1  LIG1        0.0000
     30 H           5.1124    4.5184    0.5126 H       1  LIG1        0.0000
     31 H           4.9270    5.0394   -3.0780 H       1  LIG1        0.0000
     32 H           4.8273    5.9795   -1.7465 H       1  LIG1        0.0000
     33 H           6.1127    4.9944   -1.9561 H       1  LIG1        0.0000
     34 H           3.5054    3.1860   -3.0781 H       1  LIG1        0.0000
     35 H           2.3585    1.4309   -1.9075 H       1  LIG1        0.0000
@<TRIPOS>BOND
     1     1     2    1
     2     2     3    1
     3     3     4    2
     4     3     5    1
     5     5     6    1
     6     6     7   ar
     7     7     8   ar
     8     8     9   ar
     9     9    10    1
    10     9    11   ar
    11    11    12   ar
    12    12     6   ar
    13    12    13    1
    14    13    14   ar
    15    14    15   ar
    16    15    16    1
    17    15    17   ar
    18    17    18   ar
    19    18    19   ar
    20    19    13   ar
    21    19     5    1
    22     1    20    1
    23     1    21    1
    24     1    22    1
    25     5    23    1
    26     7    24    1
    27     8    25    1
    28    10    26    1
    29    10    27    1
    30    10    28    1
    31    11    29    1
    32    14    30    1
    33    16    31    1
    34    16    32    1
    35    16    33    1
    36    17    34    1
    37    18    35    1
