@<TRIPOS>MOLECULE

  52   55
SMALL
USER_CHARGES
@<TRIPOS>ATOM
   1 C1          -3.5953     2.0912     0.0457 C.3          1    LIG   0.0000
   2 C2          -2.3531     1.2155     0.0274 C.3          1    LIG   0.0000
   3 O3          -1.1948     2.0371     0.0243 O.3          1    LIG   0.0000
   4 C4          -0.0161     1.3796     0.0085 C.ar         1    LIG   0.0000
   5 C5           1.1722     2.1028     0.0043 C.ar         1    LIG   0.0000
   6 C6           2.3826     1.4171    -0.0101 C.ar         1    LIG   0.0000
   7 C7           2.3941     0.0259    -0.0202 C.ar         1    LIG   0.0000
   8 N8           3.6185    -0.6553    -0.0358 N.pl3        1    LIG   0.0000
   9 C9           4.3299    -1.0536     1.0560 C.2          1    LIG   0.0000
  10 C10          3.9568    -0.8458     2.4417 C.ar         1    LIG   0.0000
  11 C11          4.7879    -1.3107     3.4559 C.ar         1    LIG   0.0000
  12 C12          4.4243    -1.1089     4.7833 C.ar         1    LIG   0.0000
  13 C13          3.2378    -0.4474     5.0816 C.ar         1    LIG   0.0000
  14 Br14         2.7309    -0.1672     6.9539 Br           1    LIG   0.0000
  15 C15          2.4048     0.0183     4.0698 C.ar         1    LIG   0.0000
  16 C16          2.7700    -0.1846     2.7432 C.ar         1    LIG   0.0000
  17 N17          5.4165    -1.6605     0.6426 N.2          1    LIG   0.0000
  18 N18          5.4298    -1.6655    -0.6681 N.pl3        1    LIG   0.0000
  19 C19          6.4846    -2.2546    -1.5042 C.3          1    LIG   0.0000
  20 N20          6.1589    -3.6602    -1.7858 N.3          1    LIG   0.0000
  21 C21          7.0814    -4.2301    -2.7769 C.3          1    LIG   0.0000
  22 C22          6.5090    -5.5710    -3.2092 C.3          1    LIG   0.0000
  23 N23          6.1519    -6.4226    -2.0619 N.am         1    LIG   0.0000
  24 C24          6.0236    -5.9063    -0.7663 C.2          1    LIG   0.0000
  25 O25          5.6896    -6.6320     0.1555 O.2          1    LIG   0.0000
  26 C26          6.3043    -4.4311    -0.5429 C.3          1    LIG   0.0000
  27 C27          4.3153    -1.0400    -1.1365 C.2          1    LIG   0.0000
  28 S28          3.9073    -0.8095    -2.6779 S.2          1    LIG   0.0000
  29 C29          1.2007    -0.6882    -0.0158 C.ar         1    LIG   0.0000
  30 C30         -0.0141    -0.0115    -0.0012 C.ar         1    LIG   0.0000
  31 H           -4.4110     1.5127     0.0479 H            1    LIG   0.0000
  32 H           -3.5890     2.6616     0.8671 H            1    LIG   0.0000
  33 H           -3.6033     2.6755    -0.7658 H            1    LIG   0.0000
  34 H           -2.3451     0.6313     0.8390 H            1    LIG   0.0000
  35 H           -2.3594     0.6452    -0.7939 H            1    LIG   0.0000
  36 H            1.1565     3.1027     0.0115 H            1    LIG   0.0000
  37 H            3.2445     1.9242    -0.0133 H            1    LIG   0.0000
  38 H            5.6391    -1.7857     3.2326 H            1    LIG   0.0000
  39 H            5.0141    -1.4384     5.5206 H            1    LIG   0.0000
  40 H            1.5537     0.4932     4.2935 H            1    LIG   0.0000
  41 H            2.1798     0.1446     2.0061 H            1    LIG   0.0000
  42 H            7.3590    -2.2052    -1.0215 H            1    LIG   0.0000
  43 H            6.5497    -1.7487    -2.3643 H            1    LIG   0.0000
  44 H            7.9850    -4.3594    -2.3686 H            1    LIG   0.0000
  45 H            7.1561    -3.6197    -3.5654 H            1    LIG   0.0000
  46 H            5.6882    -5.4087    -3.7570 H            1    LIG   0.0000
  47 H            7.1909    -6.0479    -3.7638 H            1    LIG   0.0000
  48 H            5.9964    -7.3989    -2.2125 H            1    LIG   0.0000
  49 H            5.6609    -4.0772     0.1359 H            1    LIG   0.0000
  50 H            7.2389    -4.3261    -0.2030 H            1    LIG   0.0000
  51 H            1.2161    -1.6881    -0.0231 H            1    LIG   0.0000
  52 H           -0.8759    -0.5187     0.0022 H            1    LIG   0.0000
@<TRIPOS>BOND
   1        1        2 1
   2        2        3 1
   3        3        4 1
   4        4        5 ar
   5        5        6 ar
   6        6        7 ar
   7        7        8 1
   8        8        9 1
   9        9       10 1
  10       10       11 ar
  11       11       12 ar
  12       12       13 ar
  13       13       14 1
  14       13       15 ar
  15       15       16 ar
  16       16       10 ar
  17        9       17 2
  18       17       18 1
  19       18       19 1
  20       19       20 1
  21       20       21 1
  22       21       22 1
  23       22       23 1
  24       23       24 am
  25       24       25 2
  26       24       26 1
  27       26       20 1
  28       18       27 1
  29       27        8 1
  30       27       28 2
  31        7       29 ar
  32       29       30 ar
  33       30        4 ar
  34        1       31 1
  35        1       32 1
  36        1       33 1
  37        2       34 1
  38        2       35 1
  39        5       36 1
  40        6       37 1
  41       11       38 1
  42       12       39 1
  43       15       40 1
  44       16       41 1
  45       19       42 1
  46       19       43 1
  47       21       44 1
  48       21       45 1
  49       22       46 1
  50       22       47 1
  51       23       48 1
  52       26       49 1
  53       26       50 1
  54       29       51 1
  55       30       52 1

@<TRIPOS>MOLECULE

  52   55
SMALL
USER_CHARGES
@<TRIPOS>ATOM
   1 C1          -3.5953     2.0912     0.0457 C.3          1    LIG   0.0000
   2 C2          -2.3531     1.2155     0.0274 C.3          1    LIG   0.0000
   3 O3          -1.1948     2.0371     0.0243 O.3          1    LIG   0.0000
   4 C4          -0.0161     1.3796     0.0085 C.ar         1    LIG   0.0000
   5 C5           1.1722     2.1028     0.0043 C.ar         1    LIG   0.0000
   6 C6           2.3826     1.4171    -0.0101 C.ar         1    LIG   0.0000
   7 C7           2.3941     0.0259    -0.0202 C.ar         1    LIG   0.0000
   8 N8           3.6185    -0.6553    -0.0358 N.pl3        1    LIG   0.0000
   9 C9           4.3299    -1.0536     1.0560 C.2          1    LIG   0.0000
  10 C10          3.9568    -0.8458     2.4417 C.ar         1    LIG   0.0000
  11 C11          4.7879    -1.3107     3.4559 C.ar         1    LIG   0.0000
  12 C12          4.4243    -1.1089     4.7833 C.ar         1    LIG   0.0000
  13 C13          3.2378    -0.4474     5.0816 C.ar         1    LIG   0.0000
  14 Br14         2.7309    -0.1672     6.9539 Br           1    LIG   0.0000
  15 C15          2.4048     0.0183     4.0698 C.ar         1    LIG   0.0000
  16 C16          2.7700    -0.1846     2.7432 C.ar         1    LIG   0.0000
  17 N17          5.4165    -1.6605     0.6426 N.2          1    LIG   0.0000
  18 N18          5.4298    -1.6655    -0.6681 N.pl3        1    LIG   0.0000
  19 C19          6.4846    -2.2546    -1.5042 C.3          1    LIG   0.0000
  20 N20          6.1589    -3.6602    -1.7858 N.3          1    LIG   0.0000
  21 C21          5.7838    -4.3740    -0.5579 C.3          1    LIG   0.0000
  22 C22          5.7393    -5.8568    -0.8921 C.3          1    LIG   0.0000
  23 N23          4.9393    -6.1346    -2.0971 N.am         1    LIG   0.0000
  24 C24          4.5840    -5.1252    -3.0006 C.2          1    LIG   0.0000
  25 O25          3.9526    -5.3953    -4.0087 O.2          1    LIG   0.0000
  26 C26          5.0062    -3.6989    -2.6966 C.3          1    LIG   0.0000
  27 C27          4.3153    -1.0400    -1.1365 C.2          1    LIG   0.0000
  28 S28          3.9073    -0.8095    -2.6779 S.2          1    LIG   0.0000
  29 C29          1.2007    -0.6882    -0.0158 C.ar         1    LIG   0.0000
  30 C30         -0.0141    -0.0115    -0.0012 C.ar         1    LIG   0.0000
  31 H           -4.4110     1.5127     0.0479 H            1    LIG   0.0000
  32 H           -3.5890     2.6616     0.8671 H            1    LIG   0.0000
  33 H           -3.6033     2.6755    -0.7658 H            1    LIG   0.0000
  34 H           -2.3451     0.6313     0.8390 H            1    LIG   0.0000
  35 H           -2.3594     0.6452    -0.7939 H            1    LIG   0.0000
  36 H            1.1565     3.1027     0.0115 H            1    LIG   0.0000
  37 H            3.2445     1.9242    -0.0133 H            1    LIG   0.0000
  38 H            5.6391    -1.7857     3.2326 H            1    LIG   0.0000
  39 H            5.0141    -1.4384     5.5206 H            1    LIG   0.0000
  40 H            1.5537     0.4932     4.2935 H            1    LIG   0.0000
  41 H            2.1798     0.1446     2.0061 H            1    LIG   0.0000
  42 H            7.3590    -2.2052    -1.0215 H            1    LIG   0.0000
  43 H            6.5497    -1.7487    -2.3643 H            1    LIG   0.0000
  44 H            4.8853    -4.0668    -0.2445 H            1    LIG   0.0000
  45 H            6.4621    -4.2046     0.1572 H            1    LIG   0.0000
  46 H            6.6732    -6.1802    -1.0446 H            1    LIG   0.0000
  47 H            5.3382    -6.3488    -0.1194 H            1    LIG   0.0000
  48 H            4.6408    -7.0722    -2.2755 H            1    LIG   0.0000
  49 H            5.2529    -3.2438    -3.5522 H            1    LIG   0.0000
  50 H            4.2400    -3.2169    -2.2716 H            1    LIG   0.0000
  51 H            1.2161    -1.6881    -0.0231 H            1    LIG   0.0000
  52 H           -0.8759    -0.5187     0.0022 H            1    LIG   0.0000
@<TRIPOS>BOND
   1        1        2 1
   2        2        3 1
   3        3        4 1
   4        4        5 ar
   5        5        6 ar
   6        6        7 ar
   7        7        8 1
   8        8        9 1
   9        9       10 1
  10       10       11 ar
  11       11       12 ar
  12       12       13 ar
  13       13       14 1
  14       13       15 ar
  15       15       16 ar
  16       16       10 ar
  17        9       17 2
  18       17       18 1
  19       18       19 1
  20       19       20 1
  21       20       21 1
  22       21       22 1
  23       22       23 1
  24       23       24 am
  25       24       25 2
  26       24       26 1
  27       26       20 1
  28       18       27 1
  29       27        8 1
  30       27       28 2
  31        7       29 ar
  32       29       30 ar
  33       30        4 ar
  34        1       31 1
  35        1       32 1
  36        1       33 1
  37        2       34 1
  38        2       35 1
  39        5       36 1
  40        6       37 1
  41       11       38 1
  42       12       39 1
  43       15       40 1
  44       16       41 1
  45       19       42 1
  46       19       43 1
  47       21       44 1
  48       21       45 1
  49       22       46 1
  50       22       47 1
  51       23       48 1
  52       26       49 1
  53       26       50 1
  54       29       51 1
  55       30       52 1

@<TRIPOS>MOLECULE

  52   55
SMALL
USER_CHARGES
@<TRIPOS>ATOM
   1 C1          -3.5953     2.0912     0.0457 C.3          1    LIG   0.0000
   2 C2          -2.3531     1.2155     0.0274 C.3          1    LIG   0.0000
   3 O3          -1.1948     2.0371     0.0243 O.3          1    LIG   0.0000
   4 C4          -0.0161     1.3796     0.0085 C.ar         1    LIG   0.0000
   5 C5           1.1722     2.1028     0.0043 C.ar         1    LIG   0.0000
   6 C6           2.3826     1.4171    -0.0101 C.ar         1    LIG   0.0000
   7 C7           2.3941     0.0259    -0.0202 C.ar         1    LIG   0.0000
   8 N8           3.6185    -0.6553    -0.0358 N.pl3        1    LIG   0.0000
   9 C9           4.3299    -1.0536     1.0560 C.2          1    LIG   0.0000
  10 C10          3.9568    -0.8458     2.4417 C.ar         1    LIG   0.0000
  11 C11          4.7879    -1.3107     3.4559 C.ar         1    LIG   0.0000
  12 C12          4.4243    -1.1089     4.7833 C.ar         1    LIG   0.0000
  13 C13          3.2378    -0.4474     5.0816 C.ar         1    LIG   0.0000
  14 Br14         2.7309    -0.1672     6.9539 Br           1    LIG   0.0000
  15 C15          2.4048     0.0183     4.0698 C.ar         1    LIG   0.0000
  16 C16          2.7700    -0.1846     2.7432 C.ar         1    LIG   0.0000
  17 N17          5.4165    -1.6605     0.6426 N.2          1    LIG   0.0000
  18 N18          5.4298    -1.6655    -0.6681 N.pl3        1    LIG   0.0000
  19 C19          6.4846    -2.2546    -1.5042 C.3          1    LIG   0.0000
  20 N20          7.5139    -1.2419    -1.7803 N.3          1    LIG   0.0000
  21 C21          8.6803    -1.8386    -2.4447 C.3          1    LIG   0.0000
  22 C22          9.7879    -0.7966    -2.4365 C.3          1    LIG   0.0000
  23 N23          9.3297     0.5103    -2.9377 N.am         1    LIG   0.0000
  24 C24          7.9699     0.8251    -3.0539 C.2          1    LIG   0.0000
  25 O25          7.6242     1.9303    -3.4370 O.2          1    LIG   0.0000
  26 C26          6.9467    -0.2355    -2.6888 C.3          1    LIG   0.0000
  27 C27          4.3153    -1.0400    -1.1365 C.2          1    LIG   0.0000
  28 S28          3.9073    -0.8095    -2.6779 S.2          1    LIG   0.0000
  29 C29          1.2007    -0.6882    -0.0158 C.ar         1    LIG   0.0000
  30 C30         -0.0141    -0.0115    -0.0012 C.ar         1    LIG   0.0000
  31 H           -4.4110     1.5127     0.0479 H            1    LIG   0.0000
  32 H           -3.5890     2.6616     0.8671 H            1    LIG   0.0000
  33 H           -3.6033     2.6755    -0.7658 H            1    LIG   0.0000
  34 H           -2.3451     0.6313     0.8390 H            1    LIG   0.0000
  35 H           -2.3594     0.6452    -0.7939 H            1    LIG   0.0000
  36 H            1.1565     3.1027     0.0115 H            1    LIG   0.0000
  37 H            3.2445     1.9242    -0.0133 H            1    LIG   0.0000
  38 H            5.6391    -1.7857     3.2326 H            1    LIG   0.0000
  39 H            5.0141    -1.4384     5.5206 H            1    LIG   0.0000
  40 H            1.5537     0.4932     4.2935 H            1    LIG   0.0000
  41 H            2.1798     0.1446     2.0061 H            1    LIG   0.0000
  42 H            6.0888    -2.5712    -2.3662 H            1    LIG   0.0000
  43 H            6.8982    -3.0277    -1.0234 H            1    LIG   0.0000
  44 H            8.4491    -2.0848    -3.3859 H            1    LIG   0.0000
  45 H            8.9754    -2.6556    -1.9493 H            1    LIG   0.0000
  46 H           10.1166    -0.6841    -1.4988 H            1    LIG   0.0000
  47 H           10.5366    -1.1187    -3.0158 H            1    LIG   0.0000
  48 H           10.0101     1.1935    -3.2031 H            1    LIG   0.0000
  49 H            6.1684     0.2046    -2.2409 H            1    LIG   0.0000
  50 H            6.6374    -0.6896    -3.5242 H            1    LIG   0.0000
  51 H            1.2161    -1.6881    -0.0231 H            1    LIG   0.0000
  52 H           -0.8759    -0.5187     0.0022 H            1    LIG   0.0000
@<TRIPOS>BOND
   1        1        2 1
   2        2        3 1
   3        3        4 1
   4        4        5 ar
   5        5        6 ar
   6        6        7 ar
   7        7        8 1
   8        8        9 1
   9        9       10 1
  10       10       11 ar
  11       11       12 ar
  12       12       13 ar
  13       13       14 1
  14       13       15 ar
  15       15       16 ar
  16       16       10 ar
  17        9       17 2
  18       17       18 1
  19       18       19 1
  20       19       20 1
  21       20       21 1
  22       21       22 1
  23       22       23 1
  24       23       24 am
  25       24       25 2
  26       24       26 1
  27       26       20 1
  28       18       27 1
  29       27        8 1
  30       27       28 2
  31        7       29 ar
  32       29       30 ar
  33       30        4 ar
  34        1       31 1
  35        1       32 1
  36        1       33 1
  37        2       34 1
  38        2       35 1
  39        5       36 1
  40        6       37 1
  41       11       38 1
  42       12       39 1
  43       15       40 1
  44       16       41 1
  45       19       42 1
  46       19       43 1
  47       21       44 1
  48       21       45 1
  49       22       46 1
  50       22       47 1
  51       23       48 1
  52       26       49 1
  53       26       50 1
  54       29       51 1
  55       30       52 1

@<TRIPOS>MOLECULE

  52   55
SMALL
USER_CHARGES
@<TRIPOS>ATOM
   1 C1          -3.5953     2.0912     0.0457 C.3          1    LIG   0.0000
   2 C2          -2.3531     1.2155     0.0274 C.3          1    LIG   0.0000
   3 O3          -1.1948     2.0371     0.0243 O.3          1    LIG   0.0000
   4 C4          -0.0161     1.3796     0.0085 C.ar         1    LIG   0.0000
   5 C5           1.1722     2.1028     0.0043 C.ar         1    LIG   0.0000
   6 C6           2.3826     1.4171    -0.0101 C.ar         1    LIG   0.0000
   7 C7           2.3941     0.0259    -0.0202 C.ar         1    LIG   0.0000
   8 N8           3.6185    -0.6553    -0.0358 N.pl3        1    LIG   0.0000
   9 C9           4.3299    -1.0536     1.0560 C.2          1    LIG   0.0000
  10 C10          3.9568    -0.8458     2.4417 C.ar         1    LIG   0.0000
  11 C11          4.7879    -1.3107     3.4559 C.ar         1    LIG   0.0000
  12 C12          4.4243    -1.1089     4.7833 C.ar         1    LIG   0.0000
  13 C13          3.2378    -0.4474     5.0816 C.ar         1    LIG   0.0000
  14 Br14         2.7309    -0.1672     6.9539 Br           1    LIG   0.0000
  15 C15          2.4048     0.0183     4.0698 C.ar         1    LIG   0.0000
  16 C16          2.7700    -0.1846     2.7432 C.ar         1    LIG   0.0000
  17 N17          5.4165    -1.6605     0.6426 N.2          1    LIG   0.0000
  18 N18          5.4298    -1.6655    -0.6681 N.pl3        1    LIG   0.0000
  19 C19          6.4846    -2.2546    -1.5042 C.3          1    LIG   0.0000
  20 N20          7.5139    -1.2419    -1.7803 N.3          1    LIG   0.0000
  21 C21          6.9100     0.0187    -2.2322 C.3          1    LIG   0.0000
  22 C22          8.0355     0.8978    -2.7547 C.3          1    LIG   0.0000
  23 N23          9.1552     0.9970    -1.8031 N.am         1    LIG   0.0000
  24 C24          9.3013     0.1044    -0.7337 C.2          1    LIG   0.0000
  25 O25         10.2610     0.1912     0.0141 O.2          1    LIG   0.0000
  26 C26          8.2448    -0.9677    -0.5350 C.3          1    LIG   0.0000
  27 C27          4.3153    -1.0400    -1.1365 C.2          1    LIG   0.0000
  28 S28          3.9073    -0.8095    -2.6779 S.2          1    LIG   0.0000
  29 C29          1.2007    -0.6882    -0.0158 C.ar         1    LIG   0.0000
  30 C30         -0.0141    -0.0115    -0.0012 C.ar         1    LIG   0.0000
  31 H           -4.4110     1.5127     0.0479 H            1    LIG   0.0000
  32 H           -3.5890     2.6616     0.8671 H            1    LIG   0.0000
  33 H           -3.6033     2.6755    -0.7658 H            1    LIG   0.0000
  34 H           -2.3451     0.6313     0.8390 H            1    LIG   0.0000
  35 H           -2.3594     0.6452    -0.7939 H            1    LIG   0.0000
  36 H            1.1565     3.1027     0.0115 H            1    LIG   0.0000
  37 H            3.2445     1.9242    -0.0133 H            1    LIG   0.0000
  38 H            5.6391    -1.7857     3.2326 H            1    LIG   0.0000
  39 H            5.0141    -1.4384     5.5206 H            1    LIG   0.0000
  40 H            1.5537     0.4932     4.2935 H            1    LIG   0.0000
  41 H            2.1798     0.1446     2.0061 H            1    LIG   0.0000
  42 H            6.0888    -2.5712    -2.3662 H            1    LIG   0.0000
  43 H            6.8982    -3.0277    -1.0234 H            1    LIG   0.0000
  44 H            6.4493     0.4706    -1.4683 H            1    LIG   0.0000
  45 H            6.2492    -0.1605    -2.9611 H            1    LIG   0.0000
  46 H            8.3751     0.5099    -3.6116 H            1    LIG   0.0000
  47 H            7.6749     1.8151    -2.9238 H            1    LIG   0.0000
  48 H            9.8316     1.7236    -1.9242 H            1    LIG   0.0000
  49 H            8.6895    -1.8089    -0.2274 H            1    LIG   0.0000
  50 H            7.5964    -0.6596     0.1611 H            1    LIG   0.0000
  51 H            1.2161    -1.6881    -0.0231 H            1    LIG   0.0000
  52 H           -0.8759    -0.5187     0.0022 H            1    LIG   0.0000
@<TRIPOS>BOND
   1        1        2 1
   2        2        3 1
   3        3        4 1
   4        4        5 ar
   5        5        6 ar
   6        6        7 ar
   7        7        8 1
   8        8        9 1
   9        9       10 1
  10       10       11 ar
  11       11       12 ar
  12       12       13 ar
  13       13       14 1
  14       13       15 ar
  15       15       16 ar
  16       16       10 ar
  17        9       17 2
  18       17       18 1
  19       18       19 1
  20       19       20 1
  21       20       21 1
  22       21       22 1
  23       22       23 1
  24       23       24 am
  25       24       25 2
  26       24       26 1
  27       26       20 1
  28       18       27 1
  29       27        8 1
  30       27       28 2
  31        7       29 ar
  32       29       30 ar
  33       30        4 ar
  34        1       31 1
  35        1       32 1
  36        1       33 1
  37        2       34 1
  38        2       35 1
  39        5       36 1
  40        6       37 1
  41       11       38 1
  42       12       39 1
  43       15       40 1
  44       16       41 1
  45       19       42 1
  46       19       43 1
  47       21       44 1
  48       21       45 1
  49       22       46 1
  50       22       47 1
  51       23       48 1
  52       26       49 1
  53       26       50 1
  54       29       51 1
  55       30       52 1

@<TRIPOS>MOLECULE

  52   55
SMALL
USER_CHARGES
@<TRIPOS>ATOM
   1 C1          -3.5953     2.0912     0.0457 C.3          1    LIG   0.0000
   2 C2          -2.3531     1.2155     0.0274 C.3          1    LIG   0.0000
   3 O3          -1.1948     2.0371     0.0243 O.3          1    LIG   0.0000
   4 C4          -0.0161     1.3796     0.0085 C.ar         1    LIG   0.0000
   5 C5           1.1722     2.1028     0.0043 C.ar         1    LIG   0.0000
   6 C6           2.3826     1.4171    -0.0101 C.ar         1    LIG   0.0000
   7 C7           2.3941     0.0259    -0.0202 C.ar         1    LIG   0.0000
   8 N8           3.6185    -0.6553    -0.0358 N.pl3        1    LIG   0.0000
   9 C9           4.3106    -1.0378    -1.1455 C.2          1    LIG   0.0000
  10 C10          3.9104    -0.8154    -2.5213 C.ar         1    LIG   0.0000
  11 C11          4.7237    -1.2654    -3.5565 C.ar         1    LIG   0.0000
  12 C12          4.3349    -1.0485    -4.8743 C.ar         1    LIG   0.0000
  13 C13          3.1417    -0.3861    -5.1423 C.ar         1    LIG   0.0000
  14 Br14         2.6000    -0.0829    -7.0013 Br           1    LIG   0.0000
  15 C15          2.3267     0.0651    -4.1095 C.ar         1    LIG   0.0000
  16 C16          2.7174    -0.1525    -2.7925 C.ar         1    LIG   0.0000
  17 N17          5.4070    -1.6454    -0.7599 N.2          1    LIG   0.0000
  18 N18          5.4437    -1.6683     0.5502 N.pl3        1    LIG   0.0000
  19 C19          6.5165    -2.2628     1.3591 C.3          1    LIG   0.0000
  20 N20          7.5446    -1.2480     1.6318 N.3          1    LIG   0.0000
  21 C21          8.5342    -1.7419     2.5985 C.3          1    LIG   0.0000
  22 C22          9.3801    -0.5531     3.0274 C.3          1    LIG   0.0000
  23 N23          9.8931     0.2117     1.8781 N.am         1    LIG   0.0000
  24 C24          9.3616     0.0625     0.5908 C.2          1    LIG   0.0000
  25 O25          9.7842     0.7389    -0.3321 O.2          1    LIG   0.0000
  26 C26          8.2519    -0.9515     0.3780 C.3          1    LIG   0.0000
  27 C27          4.3341    -1.0564     1.0468 C.2          1    LIG   0.0000
  28 S28          3.9532    -0.8479     2.5983 S.2          1    LIG   0.0000
  29 C29          1.2007    -0.6882    -0.0158 C.ar         1    LIG   0.0000
  30 C30         -0.0141    -0.0115    -0.0012 C.ar         1    LIG   0.0000
  31 H           -4.4110     1.5127     0.0479 H            1    LIG   0.0000
  32 H           -3.5890     2.6616     0.8671 H            1    LIG   0.0000
  33 H           -3.6033     2.6755    -0.7658 H            1    LIG   0.0000
  34 H           -2.3451     0.6313     0.8390 H            1    LIG   0.0000
  35 H           -2.3594     0.6452    -0.7939 H            1    LIG   0.0000
  36 H            1.1565     3.1027     0.0115 H            1    LIG   0.0000
  37 H            3.2445     1.9242    -0.0133 H            1    LIG   0.0000
  38 H            5.5803    -1.7405    -3.3550 H            1    LIG   0.0000
  39 H            4.9113    -1.3678    -5.6265 H            1    LIG   0.0000
  40 H            1.4702     0.5402    -4.3114 H            1    LIG   0.0000
  41 H            2.1409     0.1673    -2.0406 H            1    LIG   0.0000
  42 H            6.9261    -3.0265     0.8601 H            1    LIG   0.0000
  43 H            6.1378    -2.5942     2.2233 H            1    LIG   0.0000
  44 H            9.1124    -2.4370     2.1714 H            1    LIG   0.0000
  45 H            8.0703    -2.1358     3.3920 H            1    LIG   0.0000
  46 H            8.8202     0.0527     3.5927 H            1    LIG   0.0000
  47 H           10.1555    -0.8870     3.5634 H            1    LIG   0.0000
  48 H           10.6435     0.8571     2.0211 H            1    LIG   0.0000
  49 H            7.5989    -0.5842    -0.2843 H            1    LIG   0.0000
  50 H            8.6487    -1.7972     0.0211 H            1    LIG   0.0000
  51 H            1.2161    -1.6881    -0.0231 H            1    LIG   0.0000
  52 H           -0.8759    -0.5187     0.0022 H            1    LIG   0.0000
@<TRIPOS>BOND
   1        1        2 1
   2        2        3 1
   3        3        4 1
   4        4        5 ar
   5        5        6 ar
   6        6        7 ar
   7        7        8 1
   8        8        9 1
   9        9       10 1
  10       10       11 ar
  11       11       12 ar
  12       12       13 ar
  13       13       14 1
  14       13       15 ar
  15       15       16 ar
  16       16       10 ar
  17        9       17 2
  18       17       18 1
  19       18       19 1
  20       19       20 1
  21       20       21 1
  22       21       22 1
  23       22       23 1
  24       23       24 am
  25       24       25 2
  26       24       26 1
  27       26       20 1
  28       18       27 1
  29       27        8 1
  30       27       28 2
  31        7       29 ar
  32       29       30 ar
  33       30        4 ar
  34        1       31 1
  35        1       32 1
  36        1       33 1
  37        2       34 1
  38        2       35 1
  39        5       36 1
  40        6       37 1
  41       11       38 1
  42       12       39 1
  43       15       40 1
  44       16       41 1
  45       19       42 1
  46       19       43 1
  47       21       44 1
  48       21       45 1
  49       22       46 1
  50       22       47 1
  51       23       48 1
  52       26       49 1
  53       26       50 1
  54       29       51 1
  55       30       52 1

@<TRIPOS>MOLECULE

  52   55
SMALL
USER_CHARGES
@<TRIPOS>ATOM
   1 C1          -3.5953     2.0912     0.0457 C.3          1    LIG   0.0000
   2 C2          -2.3531     1.2155     0.0274 C.3          1    LIG   0.0000
   3 O3          -1.1948     2.0371     0.0243 O.3          1    LIG   0.0000
   4 C4          -0.0161     1.3796     0.0085 C.ar         1    LIG   0.0000
   5 C5           1.1722     2.1028     0.0043 C.ar         1    LIG   0.0000
   6 C6           2.3826     1.4171    -0.0101 C.ar         1    LIG   0.0000
   7 C7           2.3941     0.0259    -0.0202 C.ar         1    LIG   0.0000
   8 N8           3.6185    -0.6553    -0.0358 N.pl3        1    LIG   0.0000
   9 C9           4.3106    -1.0378    -1.1455 C.2          1    LIG   0.0000
  10 C10          3.9104    -0.8154    -2.5213 C.ar         1    LIG   0.0000
  11 C11          4.7237    -1.2654    -3.5565 C.ar         1    LIG   0.0000
  12 C12          4.3349    -1.0485    -4.8743 C.ar         1    LIG   0.0000
  13 C13          3.1417    -0.3861    -5.1423 C.ar         1    LIG   0.0000
  14 Br14         2.6000    -0.0829    -7.0013 Br           1    LIG   0.0000
  15 C15          2.3267     0.0651    -4.1095 C.ar         1    LIG   0.0000
  16 C16          2.7174    -0.1525    -2.7925 C.ar         1    LIG   0.0000
  17 N17          5.4070    -1.6454    -0.7599 N.2          1    LIG   0.0000
  18 N18          5.4437    -1.6683     0.5502 N.pl3        1    LIG   0.0000
  19 C19          6.5165    -2.2628     1.3591 C.3          1    LIG   0.0000
  20 N20          7.5446    -1.2480     1.6318 N.3          1    LIG   0.0000
  21 C21          7.9294    -0.5396     0.4037 C.3          1    LIG   0.0000
  22 C22          9.1722     0.2766     0.7227 C.3          1    LIG   0.0000
  23 N23          9.0100     1.0897     1.9400 N.am         1    LIG   0.0000
  24 C24          7.9826     0.8495     2.8611 C.2          1    LIG   0.0000
  25 O25          7.8990     1.5174     3.8783 O.2          1    LIG   0.0000
  26 C26          6.9875    -0.2581     2.5644 C.3          1    LIG   0.0000
  27 C27          4.3341    -1.0564     1.0468 C.2          1    LIG   0.0000
  28 S28          3.9532    -0.8479     2.5983 S.2          1    LIG   0.0000
  29 C29          1.2007    -0.6882    -0.0158 C.ar         1    LIG   0.0000
  30 C30         -0.0141    -0.0115    -0.0012 C.ar         1    LIG   0.0000
  31 H           -4.4110     1.5127     0.0479 H            1    LIG   0.0000
  32 H           -3.5890     2.6616     0.8671 H            1    LIG   0.0000
  33 H           -3.6033     2.6755    -0.7658 H            1    LIG   0.0000
  34 H           -2.3451     0.6313     0.8390 H            1    LIG   0.0000
  35 H           -2.3594     0.6452    -0.7939 H            1    LIG   0.0000
  36 H            1.1565     3.1027     0.0115 H            1    LIG   0.0000
  37 H            3.2445     1.9242    -0.0133 H            1    LIG   0.0000
  38 H            5.5803    -1.7405    -3.3550 H            1    LIG   0.0000
  39 H            4.9113    -1.3678    -5.6265 H            1    LIG   0.0000
  40 H            1.4702     0.5402    -4.3114 H            1    LIG   0.0000
  41 H            2.1409     0.1673    -2.0406 H            1    LIG   0.0000
  42 H            6.9261    -3.0265     0.8601 H            1    LIG   0.0000
  43 H            6.1378    -2.5942     2.2233 H            1    LIG   0.0000
  44 H            7.1886     0.0652     0.1112 H            1    LIG   0.0000
  45 H            8.1290    -1.1974    -0.3225 H            1    LIG   0.0000
  46 H            9.9422    -0.3480     0.8535 H            1    LIG   0.0000
  47 H            9.3637     0.8851    -0.0473 H            1    LIG   0.0000
  48 H            9.6527     1.8358     2.1140 H            1    LIG   0.0000
  49 H            6.7475    -0.7169     3.4199 H            1    LIG   0.0000
  50 H            6.1659     0.1433     2.1596 H            1    LIG   0.0000
  51 H            1.2161    -1.6881    -0.0231 H            1    LIG   0.0000
  52 H           -0.8759    -0.5187     0.0022 H            1    LIG   0.0000
@<TRIPOS>BOND
   1        1        2 1
   2        2        3 1
   3        3        4 1
   4        4        5 ar
   5        5        6 ar
   6        6        7 ar
   7        7        8 1
   8        8        9 1
   9        9       10 1
  10       10       11 ar
  11       11       12 ar
  12       12       13 ar
  13       13       14 1
  14       13       15 ar
  15       15       16 ar
  16       16       10 ar
  17        9       17 2
  18       17       18 1
  19       18       19 1
  20       19       20 1
  21       20       21 1
  22       21       22 1
  23       22       23 1
  24       23       24 am
  25       24       25 2
  26       24       26 1
  27       26       20 1
  28       18       27 1
  29       27        8 1
  30       27       28 2
  31        7       29 ar
  32       29       30 ar
  33       30        4 ar
  34        1       31 1
  35        1       32 1
  36        1       33 1
  37        2       34 1
  38        2       35 1
  39        5       36 1
  40        6       37 1
  41       11       38 1
  42       12       39 1
  43       15       40 1
  44       16       41 1
  45       19       42 1
  46       19       43 1
  47       21       44 1
  48       21       45 1
  49       22       46 1
  50       22       47 1
  51       23       48 1
  52       26       49 1
  53       26       50 1
  54       29       51 1
  55       30       52 1

@<TRIPOS>MOLECULE

  52   55
SMALL
USER_CHARGES
@<TRIPOS>ATOM
   1 C1          -0.8360     3.9560    -1.3738 C.3          1    LIG   0.0000
   2 C2          -1.1044     3.4542     0.0356 C.3          1    LIG   0.0000
   3 O3          -1.1948     2.0371     0.0243 O.3          1    LIG   0.0000
   4 C4          -0.0161     1.3796     0.0085 C.ar         1    LIG   0.0000
   5 C5           1.1722     2.1028     0.0043 C.ar         1    LIG   0.0000
   6 C6           2.3826     1.4171    -0.0101 C.ar         1    LIG   0.0000
   7 C7           2.3941     0.0259    -0.0202 C.ar         1    LIG   0.0000
   8 N8           3.6185    -0.6553    -0.0358 N.pl3        1    LIG   0.0000
   9 C9           4.3106    -1.0378    -1.1455 C.2          1    LIG   0.0000
  10 C10          3.9104    -0.8154    -2.5213 C.ar         1    LIG   0.0000
  11 C11          4.7237    -1.2654    -3.5565 C.ar         1    LIG   0.0000
  12 C12          4.3349    -1.0485    -4.8743 C.ar         1    LIG   0.0000
  13 C13          3.1417    -0.3861    -5.1423 C.ar         1    LIG   0.0000
  14 Br14         2.6000    -0.0829    -7.0013 Br           1    LIG   0.0000
  15 C15          2.3267     0.0651    -4.1095 C.ar         1    LIG   0.0000
  16 C16          2.7174    -0.1525    -2.7925 C.ar         1    LIG   0.0000
  17 N17          5.4070    -1.6454    -0.7599 N.2          1    LIG   0.0000
  18 N18          5.4437    -1.6683     0.5502 N.pl3        1    LIG   0.0000
  19 C19          6.5165    -2.2628     1.3591 C.3          1    LIG   0.0000
  20 N20          7.5468    -1.2457     1.6323 N.3          1    LIG   0.0000
  21 C21          6.9333    -0.0916     2.3279 C.3          1    LIG   0.0000
  22 C22          7.3036     1.2852     1.7896 C.3          1    LIG   0.0000
  23 N23          8.6948     1.3445     1.3097 N.am         1    LIG   0.0000
  24 C24          9.1859     0.2374     0.6046 C.2          1    LIG   0.0000
  25 O25         10.3358     0.2360     0.1910 O.2          1    LIG   0.0000
  26 C26          8.2604    -0.9446     0.3748 C.3          1    LIG   0.0000
  27 C27          4.3341    -1.0564     1.0468 C.2          1    LIG   0.0000
  28 S28          3.9532    -0.8479     2.5983 S.2          1    LIG   0.0000
  29 C29          1.2007    -0.6882    -0.0158 C.ar         1    LIG   0.0000
  30 C30         -0.0141    -0.0115    -0.0012 C.ar         1    LIG   0.0000
  31 H           -0.7723     4.9539    -1.3659 H            1    LIG   0.0000
  32 H            0.0240     3.5697    -1.7071 H            1    LIG   0.0000
  33 H           -1.5833     3.6745    -1.9758 H            1    LIG   0.0000
  34 H           -0.3571     3.7357     0.6376 H            1    LIG   0.0000
  35 H           -1.9644     3.8404     0.3689 H            1    LIG   0.0000
  36 H            1.1565     3.1027     0.0115 H            1    LIG   0.0000
  37 H            3.2445     1.9242    -0.0133 H            1    LIG   0.0000
  38 H            5.5803    -1.7405    -3.3550 H            1    LIG   0.0000
  39 H            4.9113    -1.3678    -5.6265 H            1    LIG   0.0000
  40 H            1.4702     0.5402    -4.3114 H            1    LIG   0.0000
  41 H            2.1409     0.1673    -2.0406 H            1    LIG   0.0000
  42 H            6.9261    -3.0265     0.8601 H            1    LIG   0.0000
  43 H            6.1378    -2.5942     2.2233 H            1    LIG   0.0000
  44 H            7.2110    -0.1298     3.2879 H            1    LIG   0.0000
  45 H            5.9401    -0.1883     2.2641 H            1    LIG   0.0000
  46 H            6.6922     1.5084     1.0305 H            1    LIG   0.0000
  47 H            7.1870     1.9578     2.5204 H            1    LIG   0.0000
  48 H            9.2682     2.1457     1.4808 H            1    LIG   0.0000
  49 H            7.5991    -0.7190    -0.3406 H            1    LIG   0.0000
  50 H            8.7963    -1.7409     0.0942 H            1    LIG   0.0000
  51 H            1.2161    -1.6881    -0.0231 H            1    LIG   0.0000
  52 H           -0.8759    -0.5187     0.0022 H            1    LIG   0.0000
@<TRIPOS>BOND
   1        1        2 1
   2        2        3 1
   3        3        4 1
   4        4        5 ar
   5        5        6 ar
   6        6        7 ar
   7        7        8 1
   8        8        9 1
   9        9       10 1
  10       10       11 ar
  11       11       12 ar
  12       12       13 ar
  13       13       14 1
  14       13       15 ar
  15       15       16 ar
  16       16       10 ar
  17        9       17 2
  18       17       18 1
  19       18       19 1
  20       19       20 1
  21       20       21 1
  22       21       22 1
  23       22       23 1
  24       23       24 am
  25       24       25 2
  26       24       26 1
  27       26       20 1
  28       18       27 1
  29       27        8 1
  30       27       28 2
  31        7       29 ar
  32       29       30 ar
  33       30        4 ar
  34        1       31 1
  35        1       32 1
  36        1       33 1
  37        2       34 1
  38        2       35 1
  39        5       36 1
  40        6       37 1
  41       11       38 1
  42       12       39 1
  43       15       40 1
  44       16       41 1
  45       19       42 1
  46       19       43 1
  47       21       44 1
  48       21       45 1
  49       22       46 1
  50       22       47 1
  51       23       48 1
  52       26       49 1
  53       26       50 1
  54       29       51 1
  55       30       52 1

@<TRIPOS>MOLECULE

  52   55
SMALL
USER_CHARGES
@<TRIPOS>ATOM
   1 C1          -3.5953     2.0912     0.0457 C.3          1    LIG   0.0000
   2 C2          -2.3531     1.2155     0.0274 C.3          1    LIG   0.0000
   3 O3          -1.1948     2.0371     0.0243 O.3          1    LIG   0.0000
   4 C4          -0.0161     1.3796     0.0085 C.ar         1    LIG   0.0000
   5 C5           1.1722     2.1028     0.0043 C.ar         1    LIG   0.0000
   6 C6           2.3826     1.4171    -0.0101 C.ar         1    LIG   0.0000
   7 C7           2.3941     0.0259    -0.0202 C.ar         1    LIG   0.0000
   8 N8           3.6185    -0.6553    -0.0358 N.pl3        1    LIG   0.0000
   9 C9           4.3106    -1.0378    -1.1455 C.2          1    LIG   0.0000
  10 C10          3.9104    -0.8154    -2.5213 C.ar         1    LIG   0.0000
  11 C11          4.7237    -1.2654    -3.5565 C.ar         1    LIG   0.0000
  12 C12          4.3349    -1.0485    -4.8743 C.ar         1    LIG   0.0000
  13 C13          3.1417    -0.3861    -5.1423 C.ar         1    LIG   0.0000
  14 Br14         2.6000    -0.0829    -7.0013 Br           1    LIG   0.0000
  15 C15          2.3267     0.0651    -4.1095 C.ar         1    LIG   0.0000
  16 C16          2.7174    -0.1525    -2.7925 C.ar         1    LIG   0.0000
  17 N17          5.4070    -1.6454    -0.7599 N.2          1    LIG   0.0000
  18 N18          5.4437    -1.6683     0.5502 N.pl3        1    LIG   0.0000
  19 C19          6.5165    -2.2628     1.3591 C.3          1    LIG   0.0000
  20 N20          6.2040    -3.6743     1.6261 N.3          1    LIG   0.0000
  21 C21          7.3387    -4.3578     2.2612 C.3          1    LIG   0.0000
  22 C22          7.0370    -5.8482     2.2427 C.3          1    LIG   0.0000
  23 N23          5.6950    -6.1536     2.7669 N.am         1    LIG   0.0000
  24 C24          4.7131    -5.1655     2.9129 C.2          1    LIG   0.0000
  25 O25          3.5993    -5.4588     3.3146 O.2          1    LIG   0.0000
  26 C26          5.0677    -3.7330     2.5563 C.3          1    LIG   0.0000
  27 C27          4.3341    -1.0564     1.0468 C.2          1    LIG   0.0000
  28 S28          3.9532    -0.8479     2.5983 S.2          1    LIG   0.0000
  29 C29          1.2007    -0.6882    -0.0158 C.ar         1    LIG   0.0000
  30 C30         -0.0141    -0.0115    -0.0012 C.ar         1    LIG   0.0000
  31 H           -4.4110     1.5127     0.0479 H            1    LIG   0.0000
  32 H           -3.5890     2.6616     0.8671 H            1    LIG   0.0000
  33 H           -3.6033     2.6755    -0.7658 H            1    LIG   0.0000
  34 H           -2.3451     0.6313     0.8390 H            1    LIG   0.0000
  35 H           -2.3594     0.6452    -0.7939 H            1    LIG   0.0000
  36 H            1.1565     3.1027     0.0115 H            1    LIG   0.0000
  37 H            3.2445     1.9242    -0.0133 H            1    LIG   0.0000
  38 H            5.5803    -1.7405    -3.3550 H            1    LIG   0.0000
  39 H            4.9113    -1.3678    -5.6265 H            1    LIG   0.0000
  40 H            1.4702     0.5402    -4.3114 H            1    LIG   0.0000
  41 H            2.1409     0.1673    -2.0406 H            1    LIG   0.0000
  42 H            6.5937    -1.7689     2.2252 H            1    LIG   0.0000
  43 H            7.3820    -2.2013     0.8620 H            1    LIG   0.0000
  44 H            7.4443    -4.0417     3.2040 H            1    LIG   0.0000
  45 H            8.1787    -4.1724     1.7513 H            1    LIG   0.0000
  46 H            7.0965    -6.1766     1.3001 H            1    LIG   0.0000
  47 H            7.7166    -6.3207     2.8038 H            1    LIG   0.0000
  48 H            5.4783    -7.0947     3.0263 H            1    LIG   0.0000
  49 H            4.2749    -3.2990     2.1284 H            1    LIG   0.0000
  50 H            5.3068    -3.2397     3.3927 H            1    LIG   0.0000
  51 H            1.2161    -1.6881    -0.0231 H            1    LIG   0.0000
  52 H           -0.8759    -0.5187     0.0022 H            1    LIG   0.0000
@<TRIPOS>BOND
   1        1        2 1
   2        2        3 1
   3        3        4 1
   4        4        5 ar
   5        5        6 ar
   6        6        7 ar
   7        7        8 1
   8        8        9 1
   9        9       10 1
  10       10       11 ar
  11       11       12 ar
  12       12       13 ar
  13       13       14 1
  14       13       15 ar
  15       15       16 ar
  16       16       10 ar
  17        9       17 2
  18       17       18 1
  19       18       19 1
  20       19       20 1
  21       20       21 1
  22       21       22 1
  23       22       23 1
  24       23       24 am
  25       24       25 2
  26       24       26 1
  27       26       20 1
  28       18       27 1
  29       27        8 1
  30       27       28 2
  31        7       29 ar
  32       29       30 ar
  33       30        4 ar
  34        1       31 1
  35        1       32 1
  36        1       33 1
  37        2       34 1
  38        2       35 1
  39        5       36 1
  40        6       37 1
  41       11       38 1
  42       12       39 1
  43       15       40 1
  44       16       41 1
  45       19       42 1
  46       19       43 1
  47       21       44 1
  48       21       45 1
  49       22       46 1
  50       22       47 1
  51       23       48 1
  52       26       49 1
  53       26       50 1
  54       29       51 1
  55       30       52 1

@<TRIPOS>MOLECULE

  52   55
SMALL
USER_CHARGES
@<TRIPOS>ATOM
   1 C1          -3.5953     2.0912     0.0457 C.3          1    LIG   0.0000
   2 C2          -2.3531     1.2155     0.0274 C.3          1    LIG   0.0000
   3 O3          -1.1948     2.0371     0.0243 O.3          1    LIG   0.0000
   4 C4          -0.0161     1.3796     0.0085 C.ar         1    LIG   0.0000
   5 C5           1.1722     2.1028     0.0043 C.ar         1    LIG   0.0000
   6 C6           2.3826     1.4171    -0.0101 C.ar         1    LIG   0.0000
   7 C7           2.3941     0.0259    -0.0202 C.ar         1    LIG   0.0000
   8 N8           3.6185    -0.6553    -0.0358 N.pl3        1    LIG   0.0000
   9 C9           4.3106    -1.0378    -1.1455 C.2          1    LIG   0.0000
  10 C10          3.9104    -0.8154    -2.5213 C.ar         1    LIG   0.0000
  11 C11          4.7237    -1.2654    -3.5565 C.ar         1    LIG   0.0000
  12 C12          4.3349    -1.0485    -4.8743 C.ar         1    LIG   0.0000
  13 C13          3.1417    -0.3861    -5.1423 C.ar         1    LIG   0.0000
  14 Br14         2.6000    -0.0829    -7.0013 Br           1    LIG   0.0000
  15 C15          2.3267     0.0651    -4.1095 C.ar         1    LIG   0.0000
  16 C16          2.7174    -0.1525    -2.7925 C.ar         1    LIG   0.0000
  17 N17          5.4070    -1.6454    -0.7599 N.2          1    LIG   0.0000
  18 N18          5.4437    -1.6683     0.5502 N.pl3        1    LIG   0.0000
  19 C19          6.5165    -2.2628     1.3591 C.3          1    LIG   0.0000
  20 N20          6.2040    -3.6743     1.6261 N.3          1    LIG   0.0000
  21 C21          4.8236    -3.8309     2.1033 C.3          1    LIG   0.0000
  22 C22          4.6801    -5.2563     2.6133 C.3          1    LIG   0.0000
  23 N23          5.1674    -6.2497     1.6412 N.am         1    LIG   0.0000
  24 C24          5.9820    -5.8915     0.5596 C.2          1    LIG   0.0000
  25 O25          6.3995    -6.7445    -0.2058 O.2          1    LIG   0.0000
  26 C26          6.3321    -4.4264     0.3699 C.3          1    LIG   0.0000
  27 C27          4.3341    -1.0564     1.0468 C.2          1    LIG   0.0000
  28 S28          3.9532    -0.8479     2.5983 S.2          1    LIG   0.0000
  29 C29          1.2007    -0.6882    -0.0158 C.ar         1    LIG   0.0000
  30 C30         -0.0141    -0.0115    -0.0012 C.ar         1    LIG   0.0000
  31 H           -4.4110     1.5127     0.0479 H            1    LIG   0.0000
  32 H           -3.5890     2.6616     0.8671 H            1    LIG   0.0000
  33 H           -3.6033     2.6755    -0.7658 H            1    LIG   0.0000
  34 H           -2.3451     0.6313     0.8390 H            1    LIG   0.0000
  35 H           -2.3594     0.6452    -0.7939 H            1    LIG   0.0000
  36 H            1.1565     3.1027     0.0115 H            1    LIG   0.0000
  37 H            3.2445     1.9242    -0.0133 H            1    LIG   0.0000
  38 H            5.5803    -1.7405    -3.3550 H            1    LIG   0.0000
  39 H            4.9113    -1.3678    -5.6265 H            1    LIG   0.0000
  40 H            1.4702     0.5402    -4.3114 H            1    LIG   0.0000
  41 H            2.1409     0.1673    -2.0406 H            1    LIG   0.0000
  42 H            6.5937    -1.7689     2.2252 H            1    LIG   0.0000
  43 H            7.3820    -2.2013     0.8620 H            1    LIG   0.0000
  44 H            4.1819    -3.6695     1.3534 H            1    LIG   0.0000
  45 H            4.6417    -3.1829     2.8429 H            1    LIG   0.0000
  46 H            5.2052    -5.3496     3.4591 H            1    LIG   0.0000
  47 H            3.7140    -5.4355     2.7993 H            1    LIG   0.0000
  48 H            4.9090    -7.2087     1.7570 H            1    LIG   0.0000
  49 H            7.2751    -4.3573     0.0446 H            1    LIG   0.0000
  50 H            5.7150    -4.0304    -0.3101 H            1    LIG   0.0000
  51 H            1.2161    -1.6881    -0.0231 H            1    LIG   0.0000
  52 H           -0.8759    -0.5187     0.0022 H            1    LIG   0.0000
@<TRIPOS>BOND
   1        1        2 1
   2        2        3 1
   3        3        4 1
   4        4        5 ar
   5        5        6 ar
   6        6        7 ar
   7        7        8 1
   8        8        9 1
   9        9       10 1
  10       10       11 ar
  11       11       12 ar
  12       12       13 ar
  13       13       14 1
  14       13       15 ar
  15       15       16 ar
  16       16       10 ar
  17        9       17 2
  18       17       18 1
  19       18       19 1
  20       19       20 1
  21       20       21 1
  22       21       22 1
  23       22       23 1
  24       23       24 am
  25       24       25 2
  26       24       26 1
  27       26       20 1
  28       18       27 1
  29       27        8 1
  30       27       28 2
  31        7       29 ar
  32       29       30 ar
  33       30        4 ar
  34        1       31 1
  35        1       32 1
  36        1       33 1
  37        2       34 1
  38        2       35 1
  39        5       36 1
  40        6       37 1
  41       11       38 1
  42       12       39 1
  43       15       40 1
  44       16       41 1
  45       19       42 1
  46       19       43 1
  47       21       44 1
  48       21       45 1
  49       22       46 1
  50       22       47 1
  51       23       48 1
  52       26       49 1
  53       26       50 1
  54       29       51 1
  55       30       52 1

@<TRIPOS>MOLECULE

  52   55
SMALL
USER_CHARGES
@<TRIPOS>ATOM
   1 C1          -0.8360     3.9560    -1.3738 C.3          1    LIG   0.0000
   2 C2          -1.1044     3.4542     0.0356 C.3          1    LIG   0.0000
   3 O3          -1.1948     2.0371     0.0243 O.3          1    LIG   0.0000
   4 C4          -0.0161     1.3796     0.0085 C.ar         1    LIG   0.0000
   5 C5           1.1722     2.1028     0.0043 C.ar         1    LIG   0.0000
   6 C6           2.3826     1.4171    -0.0101 C.ar         1    LIG   0.0000
   7 C7           2.3941     0.0259    -0.0202 C.ar         1    LIG   0.0000
   8 N8           3.6185    -0.6553    -0.0358 N.pl3        1    LIG   0.0000
   9 C9           4.3106    -1.0378    -1.1455 C.2          1    LIG   0.0000
  10 C10          3.9104    -0.8154    -2.5213 C.ar         1    LIG   0.0000
  11 C11          4.7237    -1.2654    -3.5565 C.ar         1    LIG   0.0000
  12 C12          4.3349    -1.0485    -4.8743 C.ar         1    LIG   0.0000
  13 C13          3.1417    -0.3861    -5.1423 C.ar         1    LIG   0.0000
  14 Br14         2.6000    -0.0829    -7.0013 Br           1    LIG   0.0000
  15 C15          2.3267     0.0651    -4.1095 C.ar         1    LIG   0.0000
  16 C16          2.7174    -0.1525    -2.7925 C.ar         1    LIG   0.0000
  17 N17          5.4070    -1.6454    -0.7599 N.2          1    LIG   0.0000
  18 N18          5.4437    -1.6683     0.5502 N.pl3        1    LIG   0.0000
  19 C19          6.5165    -2.2628     1.3591 C.3          1    LIG   0.0000
  20 N20          6.2034    -3.6774     1.6267 N.3          1    LIG   0.0000
  21 C21          7.0173    -4.1596     2.7656 C.3          1    LIG   0.0000
  22 C22          7.7066    -5.5047     2.5705 C.3          1    LIG   0.0000
  23 N23          6.8963    -6.4397     1.7714 N.am         1    LIG   0.0000
  24 C24          6.2025    -5.9198     0.6704 C.2          1    LIG   0.0000
  25 O25          5.5118    -6.6541    -0.0203 O.2          1    LIG   0.0000
  26 C26          6.3308    -4.4373     0.3666 C.3          1    LIG   0.0000
  27 C27          4.3341    -1.0564     1.0468 C.2          1    LIG   0.0000
  28 S28          3.9532    -0.8479     2.5983 S.2          1    LIG   0.0000
  29 C29          1.2007    -0.6882    -0.0158 C.ar         1    LIG   0.0000
  30 C30         -0.0141    -0.0115    -0.0012 C.ar         1    LIG   0.0000
  31 H           -0.7723     4.9539    -1.3659 H            1    LIG   0.0000
  32 H            0.0240     3.5697    -1.7071 H            1    LIG   0.0000
  33 H           -1.5833     3.6745    -1.9758 H            1    LIG   0.0000
  34 H           -0.3571     3.7357     0.6376 H            1    LIG   0.0000
  35 H           -1.9644     3.8404     0.3689 H            1    LIG   0.0000
  36 H            1.1565     3.1027     0.0115 H            1    LIG   0.0000
  37 H            3.2445     1.9242    -0.0133 H            1    LIG   0.0000
  38 H            5.5803    -1.7405    -3.3550 H            1    LIG   0.0000
  39 H            4.9113    -1.3678    -5.6265 H            1    LIG   0.0000
  40 H            1.4702     0.5402    -4.3114 H            1    LIG   0.0000
  41 H            2.1409     0.1673    -2.0406 H            1    LIG   0.0000
  42 H            6.5937    -1.7689     2.2252 H            1    LIG   0.0000
  43 H            7.3820    -2.2013     0.8620 H            1    LIG   0.0000
  44 H            6.4160    -4.2362     3.5609 H            1    LIG   0.0000
  45 H            7.7248    -3.4766     2.9471 H            1    LIG   0.0000
  46 H            8.5778    -5.3544     2.1033 H            1    LIG   0.0000
  47 H            7.8755    -5.9122     3.4679 H            1    LIG   0.0000
  48 H            6.8433    -7.4103     2.0060 H            1    LIG   0.0000
  49 H            7.2232    -4.2553    -0.0462 H            1    LIG   0.0000
  50 H            5.6080    -4.1607    -0.2666 H            1    LIG   0.0000
  51 H            1.2161    -1.6881    -0.0231 H            1    LIG   0.0000
  52 H           -0.8759    -0.5187     0.0022 H            1    LIG   0.0000
@<TRIPOS>BOND
   1        1        2 1
   2        2        3 1
   3        3        4 1
   4        4        5 ar
   5        5        6 ar
   6        6        7 ar
   7        7        8 1
   8        8        9 1
   9        9       10 1
  10       10       11 ar
  11       11       12 ar
  12       12       13 ar
  13       13       14 1
  14       13       15 ar
  15       15       16 ar
  16       16       10 ar
  17        9       17 2
  18       17       18 1
  19       18       19 1
  20       19       20 1
  21       20       21 1
  22       21       22 1
  23       22       23 1
  24       23       24 am
  25       24       25 2
  26       24       26 1
  27       26       20 1
  28       18       27 1
  29       27        8 1
  30       27       28 2
  31        7       29 ar
  32       29       30 ar
  33       30        4 ar
  34        1       31 1
  35        1       32 1
  36        1       33 1
  37        2       34 1
  38        2       35 1
  39        5       36 1
  40        6       37 1
  41       11       38 1
  42       12       39 1
  43       15       40 1
  44       16       41 1
  45       19       42 1
  46       19       43 1
  47       21       44 1
  48       21       45 1
  49       22       46 1
  50       22       47 1
  51       23       48 1
  52       26       49 1
  53       26       50 1
  54       29       51 1
  55       30       52 1

@<TRIPOS>MOLECULE

  52   55
SMALL
USER_CHARGES
@<TRIPOS>ATOM
   1 C1          -0.8360     3.9560    -1.3738 C.3          1    LIG   0.0000
   2 C2          -1.1044     3.4542     0.0356 C.3          1    LIG   0.0000
   3 O3          -1.1948     2.0371     0.0243 O.3          1    LIG   0.0000
   4 C4          -0.0161     1.3796     0.0085 C.ar         1    LIG   0.0000
   5 C5           1.1722     2.1028     0.0043 C.ar         1    LIG   0.0000
   6 C6           2.3826     1.4171    -0.0101 C.ar         1    LIG   0.0000
   7 C7           2.3941     0.0259    -0.0202 C.ar         1    LIG   0.0000
   8 N8           3.6185    -0.6553    -0.0358 N.pl3        1    LIG   0.0000
   9 C9           4.3106    -1.0378    -1.1455 C.2          1    LIG   0.0000
  10 C10          3.9104    -0.8154    -2.5213 C.ar         1    LIG   0.0000
  11 C11          4.7237    -1.2654    -3.5565 C.ar         1    LIG   0.0000
  12 C12          4.3349    -1.0485    -4.8743 C.ar         1    LIG   0.0000
  13 C13          3.1417    -0.3861    -5.1423 C.ar         1    LIG   0.0000
  14 Br14         2.6000    -0.0829    -7.0013 Br           1    LIG   0.0000
  15 C15          2.3267     0.0651    -4.1095 C.ar         1    LIG   0.0000
  16 C16          2.7174    -0.1525    -2.7925 C.ar         1    LIG   0.0000
  17 N17          5.4070    -1.6454    -0.7599 N.2          1    LIG   0.0000
  18 N18          5.4437    -1.6683     0.5502 N.pl3        1    LIG   0.0000
  19 C19          6.5165    -2.2628     1.3591 C.3          1    LIG   0.0000
  20 N20          6.2034    -3.6774     1.6267 N.3          1    LIG   0.0000
  21 C21          4.7668    -3.8141     1.9581 C.3          1    LIG   0.0000
  22 C22          4.4422    -4.6671     3.1786 C.3          1    LIG   0.0000
  23 N23          5.3639    -5.8059     3.3284 N.am         1    LIG   0.0000
  24 C24          6.7205    -5.5832     3.0560 C.2          1    LIG   0.0000
  25 O25          7.5240    -6.4981     3.1601 O.2          1    LIG   0.0000
  26 C26          7.1558    -4.1915     2.6315 C.3          1    LIG   0.0000
  27 C27          4.3341    -1.0564     1.0468 C.2          1    LIG   0.0000
  28 S28          3.9532    -0.8479     2.5983 S.2          1    LIG   0.0000
  29 C29          1.2007    -0.6882    -0.0158 C.ar         1    LIG   0.0000
  30 C30         -0.0141    -0.0115    -0.0012 C.ar         1    LIG   0.0000
  31 H           -0.7723     4.9539    -1.3659 H            1    LIG   0.0000
  32 H            0.0240     3.5697    -1.7071 H            1    LIG   0.0000
  33 H           -1.5833     3.6745    -1.9758 H            1    LIG   0.0000
  34 H           -0.3571     3.7357     0.6376 H            1    LIG   0.0000
  35 H           -1.9644     3.8404     0.3689 H            1    LIG   0.0000
  36 H            1.1565     3.1027     0.0115 H            1    LIG   0.0000
  37 H            3.2445     1.9242    -0.0133 H            1    LIG   0.0000
  38 H            5.5803    -1.7405    -3.3550 H            1    LIG   0.0000
  39 H            4.9113    -1.3678    -5.6265 H            1    LIG   0.0000
  40 H            1.4702     0.5402    -4.3114 H            1    LIG   0.0000
  41 H            2.1409     0.1673    -2.0406 H            1    LIG   0.0000
  42 H            6.5937    -1.7689     2.2252 H            1    LIG   0.0000
  43 H            7.3820    -2.2013     0.8620 H            1    LIG   0.0000
  44 H            4.3080    -4.2220     1.1687 H            1    LIG   0.0000
  45 H            4.4012    -2.8974     2.1192 H            1    LIG   0.0000
  46 H            4.5035    -4.0945     3.9961 H            1    LIG   0.0000
  47 H            3.5103    -5.0180     3.0865 H            1    LIG   0.0000
  48 H            5.0338    -6.7056     3.6142 H            1    LIG   0.0000
  49 H            7.1643    -3.5854     3.4268 H            1    LIG   0.0000
  50 H            8.0726    -4.2332     2.2344 H            1    LIG   0.0000
  51 H            1.2161    -1.6881    -0.0231 H            1    LIG   0.0000
  52 H           -0.8759    -0.5187     0.0022 H            1    LIG   0.0000
@<TRIPOS>BOND
   1        1        2 1
   2        2        3 1
   3        3        4 1
   4        4        5 ar
   5        5        6 ar
   6        6        7 ar
   7        7        8 1
   8        8        9 1
   9        9       10 1
  10       10       11 ar
  11       11       12 ar
  12       12       13 ar
  13       13       14 1
  14       13       15 ar
  15       15       16 ar
  16       16       10 ar
  17        9       17 2
  18       17       18 1
  19       18       19 1
  20       19       20 1
  21       20       21 1
  22       21       22 1
  23       22       23 1
  24       23       24 am
  25       24       25 2
  26       24       26 1
  27       26       20 1
  28       18       27 1
  29       27        8 1
  30       27       28 2
  31        7       29 ar
  32       29       30 ar
  33       30        4 ar
  34        1       31 1
  35        1       32 1
  36        1       33 1
  37        2       34 1
  38        2       35 1
  39        5       36 1
  40        6       37 1
  41       11       38 1
  42       12       39 1
  43       15       40 1
  44       16       41 1
  45       19       42 1
  46       19       43 1
  47       21       44 1
  48       21       45 1
  49       22       46 1
  50       22       47 1
  51       23       48 1
  52       26       49 1
  53       26       50 1
  54       29       51 1
  55       30       52 1

