@<TRIPOS>MOLECULE
*****
 52 55 0 0 0
SMALL
USER_CHARGES

@<TRIPOS>ATOM
      1 C1         -3.5953    2.0912    0.0457 C.3     1  LIG1        0.0000
      2 C2         -2.3531    1.2155    0.0274 C.3     1  LIG1        0.0000
      3 O3         -1.1948    2.0371    0.0243 O.2     1  LIG1        0.0000
      4 C4         -0.0161    1.3796    0.0085 C.3     1  LIG1        0.0000
      5 C5          1.1722    2.1028    0.0043 C.3     1  LIG1        0.0000
      6 C6          2.3826    1.4171   -0.0101 C.3     1  LIG1        0.0000
      7 C7          2.3941    0.0259   -0.0202 C.3     1  LIG1        0.0000
      8 N8          3.6185   -0.6553   -0.0358 N.am    1  LIG1        0.0000
      9 C9          4.3299   -1.0536    1.0560 C.2     1  LIG1        0.0000
     10 C10         3.9568   -0.8458    2.4417 C.3     1  LIG1        0.0000
     11 C11         4.7879   -1.3107    3.4559 C.3     1  LIG1        0.0000
     12 C12         4.4243   -1.1089    4.7833 C.3     1  LIG1        0.0000
     13 C13         3.2378   -0.4474    5.0816 C.3     1  LIG1        0.0000
     14 Br14        2.7309   -0.1672    6.9539 Br      1  LIG1        0.0000
     15 C15         2.4048    0.0183    4.0698 C.3     1  LIG1        0.0000
     16 C16         2.7700   -0.1846    2.7432 C.3     1  LIG1        0.0000
     17 N17         5.4165   -1.6605    0.6426 N.2     1  LIG1        0.0000
     18 N18         5.4298   -1.6655   -0.6681 N.am    1  LIG1        0.0000
     19 C19         6.4846   -2.2546   -1.5042 C.3     1  LIG1        0.0000
     20 N20         7.5139   -1.2419   -1.7803 N.3     1  LIG1        0.0000
     21 C21         6.9100    0.0187   -2.2322 C.3     1  LIG1        0.0000
     22 C22         8.0355    0.8978   -2.7547 C.3     1  LIG1        0.0000
     23 N23         9.1552    0.9970   -1.8031 N.am    1  LIG1        0.0000
     24 C24         9.3013    0.1044   -0.7337 C.2     1  LIG1        0.0000
     25 O25        10.2610    0.1912    0.0141 O.2     1  LIG1        0.0000
     26 C26         8.2448   -0.9677   -0.5350 C.3     1  LIG1        0.0000
     27 C27         4.3153   -1.0400   -1.1365 C.2     1  LIG1        0.0000
     28 S28         3.9073   -0.8095   -2.6779 S.2     1  LIG1        0.0000
     29 C29         1.2007   -0.6882   -0.0158 C.3     1  LIG1        0.0000
     30 C30        -0.0141   -0.0115   -0.0012 C.3     1  LIG1        0.0000
     31 H          -4.4110    1.5127    0.0479 H       1  LIG1        0.0000
     32 H          -3.5890    2.6616    0.8671 H       1  LIG1        0.0000
     33 H          -3.6033    2.6755   -0.7658 H       1  LIG1        0.0000
     34 H          -2.3451    0.6313    0.8390 H       1  LIG1        0.0000
     35 H          -2.3594    0.6452   -0.7939 H       1  LIG1        0.0000
     36 H           1.1565    3.1027    0.0115 H       1  LIG1        0.0000
     37 H           3.2445    1.9242   -0.0133 H       1  LIG1        0.0000
     38 H           5.6391   -1.7857    3.2326 H       1  LIG1        0.0000
     39 H           5.0141   -1.4384    5.5206 H       1  LIG1        0.0000
     40 H           1.5537    0.4932    4.2935 H       1  LIG1        0.0000
     41 H           2.1798    0.1446    2.0061 H       1  LIG1        0.0000
     42 H           6.0888   -2.5712   -2.3662 H       1  LIG1        0.0000
     43 H           6.8982   -3.0277   -1.0234 H       1  LIG1        0.0000
     44 H           6.4493    0.4706   -1.4683 H       1  LIG1        0.0000
     45 H           6.2492   -0.1605   -2.9611 H       1  LIG1        0.0000
     46 H           8.3751    0.5099   -3.6116 H       1  LIG1        0.0000
     47 H           7.6749    1.8151   -2.9238 H       1  LIG1        0.0000
     48 H           9.8316    1.7236   -1.9242 H       1  LIG1        0.0000
     49 H           8.6895   -1.8089   -0.2274 H       1  LIG1        0.0000
     50 H           7.5964   -0.6596    0.1611 H       1  LIG1        0.0000
     51 H           1.2161   -1.6881   -0.0231 H       1  LIG1        0.0000
     52 H          -0.8759   -0.5187    0.0022 H       1  LIG1        0.0000
@<TRIPOS>BOND
     1     1     2    1
     2     2     3    1
     3     3     4    1
     4     4     5   ar
     5     5     6   ar
     6     6     7   ar
     7     7     8    1
     8     8     9    1
     9     9    10    1
    10    10    11   ar
    11    11    12   ar
    12    12    13   ar
    13    13    14    1
    14    13    15   ar
    15    15    16   ar
    16    16    10   ar
    17     9    17    2
    18    17    18    1
    19    18    19    1
    20    19    20    1
    21    20    21    1
    22    21    22    1
    23    22    23    1
    24    23    24   am
    25    24    25    2
    26    24    26    1
    27    26    20    1
    28    18    27    1
    29    27     8    1
    30    27    28    2
    31     7    29   ar
    32    29    30   ar
    33    30     4   ar
    34     1    31    1
    35     1    32    1
    36     1    33    1
    37     2    34    1
    38     2    35    1
    39     5    36    1
    40     6    37    1
    41    11    38    1
    42    12    39    1
    43    15    40    1
    44    16    41    1
    45    19    42    1
    46    19    43    1
    47    21    44    1
    48    21    45    1
    49    22    46    1
    50    22    47    1
    51    23    48    1
    52    26    49    1
    53    26    50    1
    54    29    51    1
    55    30    52    1
