@<TRIPOS>MOLECULE
*****
 52 55 0 0 0
SMALL
USER_CHARGES

@<TRIPOS>ATOM
      1 C1         -3.5953    2.0912    0.0457 C.3     1  LIG1        0.0000
      2 C2         -2.3531    1.2155    0.0274 C.3     1  LIG1        0.0000
      3 O3         -1.1948    2.0371    0.0243 O.2     1  LIG1        0.0000
      4 C4         -0.0161    1.3796    0.0085 C.3     1  LIG1        0.0000
      5 C5          1.1722    2.1028    0.0043 C.3     1  LIG1        0.0000
      6 C6          2.3826    1.4171   -0.0101 C.3     1  LIG1        0.0000
      7 C7          2.3941    0.0259   -0.0202 C.3     1  LIG1        0.0000
      8 N8          3.6185   -0.6553   -0.0358 N.am    1  LIG1        0.0000
      9 C9          4.3106   -1.0378   -1.1455 C.2     1  LIG1        0.0000
     10 C10         3.9104   -0.8154   -2.5213 C.3     1  LIG1        0.0000
     11 C11         4.7237   -1.2654   -3.5565 C.3     1  LIG1        0.0000
     12 C12         4.3349   -1.0485   -4.8743 C.3     1  LIG1        0.0000
     13 C13         3.1417   -0.3861   -5.1423 C.3     1  LIG1        0.0000
     14 Br14        2.6000   -0.0829   -7.0013 Br      1  LIG1        0.0000
     15 C15         2.3267    0.0651   -4.1095 C.3     1  LIG1        0.0000
     16 C16         2.7174   -0.1525   -2.7925 C.3     1  LIG1        0.0000
     17 N17         5.4070   -1.6454   -0.7599 N.2     1  LIG1        0.0000
     18 N18         5.4437   -1.6683    0.5502 N.am    1  LIG1        0.0000
     19 C19         6.5165   -2.2628    1.3591 C.3     1  LIG1        0.0000
     20 N20         7.5446   -1.2480    1.6318 N.3     1  LIG1        0.0000
     21 C21         7.9294   -0.5396    0.4037 C.3     1  LIG1        0.0000
     22 C22         9.1722    0.2766    0.7227 C.3     1  LIG1        0.0000
     23 N23         9.0100    1.0897    1.9400 N.am    1  LIG1        0.0000
     24 C24         7.9826    0.8495    2.8611 C.2     1  LIG1        0.0000
     25 O25         7.8990    1.5174    3.8783 O.2     1  LIG1        0.0000
     26 C26         6.9875   -0.2581    2.5644 C.3     1  LIG1        0.0000
     27 C27         4.3341   -1.0564    1.0468 C.2     1  LIG1        0.0000
     28 S28         3.9532   -0.8479    2.5983 S.2     1  LIG1        0.0000
     29 C29         1.2007   -0.6882   -0.0158 C.3     1  LIG1        0.0000
     30 C30        -0.0141   -0.0115   -0.0012 C.3     1  LIG1        0.0000
     31 H          -4.4110    1.5127    0.0479 H       1  LIG1        0.0000
     32 H          -3.5890    2.6616    0.8671 H       1  LIG1        0.0000
     33 H          -3.6033    2.6755   -0.7658 H       1  LIG1        0.0000
     34 H          -2.3451    0.6313    0.8390 H       1  LIG1        0.0000
     35 H          -2.3594    0.6452   -0.7939 H       1  LIG1        0.0000
     36 H           1.1565    3.1027    0.0115 H       1  LIG1        0.0000
     37 H           3.2445    1.9242   -0.0133 H       1  LIG1        0.0000
     38 H           5.5803   -1.7405   -3.3550 H       1  LIG1        0.0000
     39 H           4.9113   -1.3678   -5.6265 H       1  LIG1        0.0000
     40 H           1.4702    0.5402   -4.3114 H       1  LIG1        0.0000
     41 H           2.1409    0.1673   -2.0406 H       1  LIG1        0.0000
     42 H           6.9261   -3.0265    0.8601 H       1  LIG1        0.0000
     43 H           6.1378   -2.5942    2.2233 H       1  LIG1        0.0000
     44 H           7.1886    0.0652    0.1112 H       1  LIG1        0.0000
     45 H           8.1290   -1.1974   -0.3225 H       1  LIG1        0.0000
     46 H           9.9422   -0.3480    0.8535 H       1  LIG1        0.0000
     47 H           9.3637    0.8851   -0.0473 H       1  LIG1        0.0000
     48 H           9.6527    1.8358    2.1140 H       1  LIG1        0.0000
     49 H           6.7475   -0.7169    3.4199 H       1  LIG1        0.0000
     50 H           6.1659    0.1433    2.1596 H       1  LIG1        0.0000
     51 H           1.2161   -1.6881   -0.0231 H       1  LIG1        0.0000
     52 H          -0.8759   -0.5187    0.0022 H       1  LIG1        0.0000
@<TRIPOS>BOND
     1     1     2    1
     2     2     3    1
     3     3     4    1
     4     4     5   ar
     5     5     6   ar
     6     6     7   ar
     7     7     8    1
     8     8     9    1
     9     9    10    1
    10    10    11   ar
    11    11    12   ar
    12    12    13   ar
    13    13    14    1
    14    13    15   ar
    15    15    16   ar
    16    16    10   ar
    17     9    17    2
    18    17    18    1
    19    18    19    1
    20    19    20    1
    21    20    21    1
    22    21    22    1
    23    22    23    1
    24    23    24   am
    25    24    25    2
    26    24    26    1
    27    26    20    1
    28    18    27    1
    29    27     8    1
    30    27    28    2
    31     7    29   ar
    32    29    30   ar
    33    30     4   ar
    34     1    31    1
    35     1    32    1
    36     1    33    1
    37     2    34    1
    38     2    35    1
    39     5    36    1
    40     6    37    1
    41    11    38    1
    42    12    39    1
    43    15    40    1
    44    16    41    1
    45    19    42    1
    46    19    43    1
    47    21    44    1
    48    21    45    1
    49    22    46    1
    50    22    47    1
    51    23    48    1
    52    26    49    1
    53    26    50    1
    54    29    51    1
    55    30    52    1
