@<TRIPOS>MOLECULE

  22   23
SMALL
USER_CHARGES
@<TRIPOS>ATOM
   1 C1           3.6598     2.2247    -0.0185 C.3          1    LIG   0.0000
   2 C2           2.3748     1.4122    -0.0128 C.ar         1    LIG   0.0000
   3 C3           1.1432     2.0586     0.0015 C.ar         1    LIG   0.0000
   4 N4          -0.0017     1.3599     0.0066 N.ar         1    LIG   0.0000
   5 C5          -0.0007     0.0186    -0.0020 C.ar         1    LIG   0.0000
   6 C6           1.1966    -0.6892    -0.0166 C.ar         1    LIG   0.0000
   7 C7           2.3921     0.0210    -0.0219 C.ar         1    LIG   0.0000
   8 C8           3.6382    -0.7208    -0.0370 C.2          1    LIG   0.0000
   9 C9           3.7786    -2.0758    -0.0502 C.2          1    LIG   0.0000
  10 C10          5.1165    -2.5504    -0.0668 C.2          1    LIG   0.0000
  11 C11          6.0351    -1.5435    -0.0660 C.2          1    LIG   0.0000
  12 C12          7.5525    -1.6694    -0.0839 C.1          1    LIG   0.0000
  13 N13          8.6885    -1.7637    -0.0973 N.1          1    LIG   0.0000
  14 S14          5.2067    -0.0556    -0.0459 S.3          1    LIG   0.0000
  15 H            3.4377     3.1997    -0.0103 H            1    LIG   0.0000
  16 H            4.2004     1.9992     0.7920 H            1    LIG   0.0000
  17 H            4.1865     2.0097    -0.8409 H            1    LIG   0.0000
  18 H            1.1110     3.0580     0.0081 H            1    LIG   0.0000
  19 H           -0.8691    -0.4772     0.0021 H            1    LIG   0.0000
  20 H            1.1976    -1.6892    -0.0231 H            1    LIG   0.0000
  21 H            2.9927    -2.6941    -0.0483 H            1    LIG   0.0000
  22 H            5.3591    -3.5204    -0.0779 H            1    LIG   0.0000
@<TRIPOS>BOND
   1        1        2 1
   2        2        3 ar
   3        3        4 ar
   4        4        5 ar
   5        5        6 ar
   6        6        7 ar
   7        7        2 ar
   8        7        8 1
   9        8        9 2
  10        9       10 1
  11       10       11 2
  12       11       12 1
  13       12       13 3
  14       11       14 1
  15       14        8 1
  16        1       15 1
  17        1       16 1
  18        1       17 1
  19        3       18 1
  20        5       19 1
  21        6       20 1
  22        9       21 1
  23       10       22 1

@<TRIPOS>MOLECULE

  22   23
SMALL
USER_CHARGES
@<TRIPOS>ATOM
   1 C1           3.6598     2.2247    -0.0185 C.3          1    LIG   0.0000
   2 C2           2.3748     1.4122    -0.0128 C.ar         1    LIG   0.0000
   3 C3           1.1432     2.0586     0.0015 C.ar         1    LIG   0.0000
   4 N4          -0.0017     1.3599     0.0066 N.ar         1    LIG   0.0000
   5 C5          -0.0007     0.0186    -0.0020 C.ar         1    LIG   0.0000
   6 C6           1.1966    -0.6892    -0.0166 C.ar         1    LIG   0.0000
   7 C7           2.3921     0.0210    -0.0219 C.ar         1    LIG   0.0000
   8 C8           3.6382    -0.7208    -0.0370 C.2          1    LIG   0.0000
   9 C9           3.9046    -1.8499    -0.7514 C.2          1    LIG   0.0000
  10 C10          5.2116    -2.3798    -0.5898 C.2          1    LIG   0.0000
  11 C11          5.9770    -1.6480     0.2683 C.2          1    LIG   0.0000
  12 C12          7.4195    -1.9085     0.6805 C.1          1    LIG   0.0000
  13 N13          8.4995    -2.1035     0.9892 N.1          1    LIG   0.0000
  14 S14          5.0497    -0.3375     0.8368 S.3          1    LIG   0.0000
  15 H            3.4377     3.1997    -0.0103 H            1    LIG   0.0000
  16 H            4.2004     1.9992     0.7920 H            1    LIG   0.0000
  17 H            4.1865     2.0097    -0.8409 H            1    LIG   0.0000
  18 H            1.1110     3.0580     0.0081 H            1    LIG   0.0000
  19 H           -0.8691    -0.4772     0.0021 H            1    LIG   0.0000
  20 H            1.1976    -1.6892    -0.0231 H            1    LIG   0.0000
  21 H            3.2256    -2.2763    -1.3489 H            1    LIG   0.0000
  22 H            5.5363    -3.2028    -1.0560 H            1    LIG   0.0000
@<TRIPOS>BOND
   1        1        2 1
   2        2        3 ar
   3        3        4 ar
   4        4        5 ar
   5        5        6 ar
   6        6        7 ar
   7        7        2 ar
   8        7        8 1
   9        8        9 2
  10        9       10 1
  11       10       11 2
  12       11       12 1
  13       12       13 3
  14       11       14 1
  15       14        8 1
  16        1       15 1
  17        1       16 1
  18        1       17 1
  19        3       18 1
  20        5       19 1
  21        6       20 1
  22        9       21 1
  23       10       22 1

@<TRIPOS>MOLECULE

  22   23
SMALL
USER_CHARGES
@<TRIPOS>ATOM
   1 C1           3.6598     2.2247    -0.0185 C.3          1    LIG   0.0000
   2 C2           2.3748     1.4122    -0.0128 C.ar         1    LIG   0.0000
   3 C3           1.1432     2.0586     0.0015 C.ar         1    LIG   0.0000
   4 N4          -0.0017     1.3599     0.0066 N.ar         1    LIG   0.0000
   5 C5          -0.0007     0.0186    -0.0020 C.ar         1    LIG   0.0000
   6 C6           1.1966    -0.6892    -0.0166 C.ar         1    LIG   0.0000
   7 C7           2.3921     0.0210    -0.0219 C.ar         1    LIG   0.0000
   8 C8           3.6382    -0.7208    -0.0370 C.2          1    LIG   0.0000
   9 C9           3.9142    -1.8625     0.6531 C.2          1    LIG   0.0000
  10 C10          5.2166    -2.3928     0.4593 C.2          1    LIG   0.0000
  11 C11          5.9690    -1.6477    -0.3989 C.2          1    LIG   0.0000
  12 C12          7.4015    -1.9076    -0.8452 C.1          1    LIG   0.0000
  13 N13          8.4739    -2.1022    -1.1794 N.1          1    LIG   0.0000
  14 S14          5.0349    -0.3261    -0.9293 S.3          1    LIG   0.0000
  15 H            3.4377     3.1997    -0.0103 H            1    LIG   0.0000
  16 H            4.2004     1.9992     0.7920 H            1    LIG   0.0000
  17 H            4.1865     2.0097    -0.8409 H            1    LIG   0.0000
  18 H            1.1110     3.0580     0.0081 H            1    LIG   0.0000
  19 H           -0.8691    -0.4772     0.0021 H            1    LIG   0.0000
  20 H            1.1976    -1.6892    -0.0231 H            1    LIG   0.0000
  21 H            3.2447    -2.2974     1.2554 H            1    LIG   0.0000
  22 H            5.5471    -3.2248     0.9051 H            1    LIG   0.0000
@<TRIPOS>BOND
   1        1        2 1
   2        2        3 ar
   3        3        4 ar
   4        4        5 ar
   5        5        6 ar
   6        6        7 ar
   7        7        2 ar
   8        7        8 1
   9        8        9 2
  10        9       10 1
  11       10       11 2
  12       11       12 1
  13       12       13 3
  14       11       14 1
  15       14        8 1
  16        1       15 1
  17        1       16 1
  18        1       17 1
  19        3       18 1
  20        5       19 1
  21        6       20 1
  22        9       21 1
  23       10       22 1

@<TRIPOS>MOLECULE

  22   23
SMALL
USER_CHARGES
@<TRIPOS>ATOM
   1 C1           3.6598     2.2247    -0.0185 C.3          1    LIG   0.0000
   2 C2           2.3748     1.4122    -0.0128 C.ar         1    LIG   0.0000
   3 C3           1.1432     2.0586     0.0015 C.ar         1    LIG   0.0000
   4 N4          -0.0017     1.3599     0.0066 N.ar         1    LIG   0.0000
   5 C5          -0.0007     0.0186    -0.0020 C.ar         1    LIG   0.0000
   6 C6           1.1966    -0.6892    -0.0166 C.ar         1    LIG   0.0000
   7 C7           2.3921     0.0210    -0.0219 C.ar         1    LIG   0.0000
   8 C8           3.6382    -0.7208    -0.0370 C.2          1    LIG   0.0000
   9 C9           4.0516    -1.5979    -0.9940 C.2          1    LIG   0.0000
  10 C10          5.3218    -2.1910    -0.7702 C.2          1    LIG   0.0000
  11 C11          5.9077    -1.7667     0.3849 C.2          1    LIG   0.0000
  12 C12          7.2611    -2.1800     0.9472 C.1          1    LIG   0.0000
  13 N13          8.2744    -2.4895     1.3682 N.1          1    LIG   0.0000
  14 S14          4.8653    -0.6535     1.1430 S.3          1    LIG   0.0000
  15 H            3.4377     3.1997    -0.0103 H            1    LIG   0.0000
  16 H            4.2004     1.9992     0.7920 H            1    LIG   0.0000
  17 H            4.1865     2.0097    -0.8409 H            1    LIG   0.0000
  18 H            1.1110     3.0580     0.0081 H            1    LIG   0.0000
  19 H           -0.8691    -0.4772     0.0021 H            1    LIG   0.0000
  20 H            1.1976    -1.6892    -0.0231 H            1    LIG   0.0000
  21 H            3.4979    -1.8095    -1.7994 H            1    LIG   0.0000
  22 H            5.7420    -2.8502    -1.3938 H            1    LIG   0.0000
@<TRIPOS>BOND
   1        1        2 1
   2        2        3 ar
   3        3        4 ar
   4        4        5 ar
   5        5        6 ar
   6        6        7 ar
   7        7        2 ar
   8        7        8 1
   9        8        9 2
  10        9       10 1
  11       10       11 2
  12       11       12 1
  13       12       13 3
  14       11       14 1
  15       14        8 1
  16        1       15 1
  17        1       16 1
  18        1       17 1
  19        3       18 1
  20        5       19 1
  21        6       20 1
  22        9       21 1
  23       10       22 1

@<TRIPOS>MOLECULE

  22   23
SMALL
USER_CHARGES
@<TRIPOS>ATOM
   1 C1           3.6598     2.2247    -0.0185 C.3          1    LIG   0.0000
   2 C2           2.3748     1.4122    -0.0128 C.ar         1    LIG   0.0000
   3 C3           1.1432     2.0586     0.0015 C.ar         1    LIG   0.0000
   4 N4          -0.0017     1.3599     0.0066 N.ar         1    LIG   0.0000
   5 C5          -0.0007     0.0186    -0.0020 C.ar         1    LIG   0.0000
   6 C6           1.1966    -0.6892    -0.0166 C.ar         1    LIG   0.0000
   7 C7           2.3921     0.0210    -0.0219 C.ar         1    LIG   0.0000
   8 C8           3.6382    -0.7208    -0.0370 C.2          1    LIG   0.0000
   9 C9           4.0645    -1.6149     0.8983 C.2          1    LIG   0.0000
  10 C10          5.3286    -2.2085     0.6433 C.2          1    LIG   0.0000
  11 C11          5.8970    -1.7663    -0.5139 C.2          1    LIG   0.0000
  12 C12          7.2368    -2.1788    -1.1084 C.1          1    LIG   0.0000
  13 N13          8.2399    -2.4876    -1.5535 N.1          1    LIG   0.0000
  14 S14          4.8454    -0.6382    -1.2364 S.3          1    LIG   0.0000
  15 H            3.4377     3.1997    -0.0103 H            1    LIG   0.0000
  16 H            4.2004     1.9992     0.7920 H            1    LIG   0.0000
  17 H            4.1865     2.0097    -0.8409 H            1    LIG   0.0000
  18 H            1.1110     3.0580     0.0081 H            1    LIG   0.0000
  19 H           -0.8691    -0.4772     0.0021 H            1    LIG   0.0000
  20 H            1.1976    -1.6892    -0.0231 H            1    LIG   0.0000
  21 H            3.5238    -1.8379     1.7093 H            1    LIG   0.0000
  22 H            5.7566    -2.8799     1.2484 H            1    LIG   0.0000
@<TRIPOS>BOND
   1        1        2 1
   2        2        3 ar
   3        3        4 ar
   4        4        5 ar
   5        5        6 ar
   6        6        7 ar
   7        7        2 ar
   8        7        8 1
   9        8        9 2
  10        9       10 1
  11       10       11 2
  12       11       12 1
  13       12       13 3
  14       11       14 1
  15       14        8 1
  16        1       15 1
  17        1       16 1
  18        1       17 1
  19        3       18 1
  20        5       19 1
  21        6       20 1
  22        9       21 1
  23       10       22 1

@<TRIPOS>MOLECULE

  22   23
SMALL
USER_CHARGES
@<TRIPOS>ATOM
   1 C1           3.6598     2.2247    -0.0185 C.3          1    LIG   0.0000
   2 C2           2.3748     1.4122    -0.0128 C.ar         1    LIG   0.0000
   3 C3           1.1432     2.0586     0.0015 C.ar         1    LIG   0.0000
   4 N4          -0.0017     1.3599     0.0066 N.ar         1    LIG   0.0000
   5 C5          -0.0007     0.0186    -0.0020 C.ar         1    LIG   0.0000
   6 C6           1.1966    -0.6892    -0.0166 C.ar         1    LIG   0.0000
   7 C7           2.3921     0.0210    -0.0219 C.ar         1    LIG   0.0000
   8 C8           3.6382    -0.7208    -0.0370 C.2          1    LIG   0.0000
   9 C9           4.7704    -0.4242     0.6602 C.2          1    LIG   0.0000
  10 C10          5.8563    -1.3185     0.4695 C.2          1    LIG   0.0000
  11 C11          5.5623    -2.3310    -0.3943 C.2          1    LIG   0.0000
  12 C12          6.4714    -3.4702    -0.8352 C.1          1    LIG   0.0000
  13 N13          7.1520    -4.3231    -1.1652 N.1          1    LIG   0.0000
  14 S14          3.9583    -2.1347    -0.9319 S.3          1    LIG   0.0000
  15 H            3.4377     3.1997    -0.0103 H            1    LIG   0.0000
  16 H            4.2004     1.9992     0.7920 H            1    LIG   0.0000
  17 H            4.1865     2.0097    -0.8409 H            1    LIG   0.0000
  18 H            1.1110     3.0580     0.0081 H            1    LIG   0.0000
  19 H           -0.8691    -0.4772     0.0021 H            1    LIG   0.0000
  20 H            1.1976    -1.6892    -0.0231 H            1    LIG   0.0000
  21 H            4.8324     0.3696     1.2653 H            1    LIG   0.0000
  22 H            6.7427    -1.2165     0.9210 H            1    LIG   0.0000
@<TRIPOS>BOND
   1        1        2 1
   2        2        3 ar
   3        3        4 ar
   4        4        5 ar
   5        5        6 ar
   6        6        7 ar
   7        7        2 ar
   8        7        8 1
   9        8        9 2
  10        9       10 1
  11       10       11 2
  12       11       12 1
  13       12       13 3
  14       11       14 1
  15       14        8 1
  16        1       15 1
  17        1       16 1
  18        1       17 1
  19        3       18 1
  20        5       19 1
  21        6       20 1
  22        9       21 1
  23       10       22 1

@<TRIPOS>MOLECULE

  22   23
SMALL
USER_CHARGES
@<TRIPOS>ATOM
   1 C1           3.6598     2.2247    -0.0185 C.3          1    LIG   0.0000
   2 C2           2.3748     1.4122    -0.0128 C.ar         1    LIG   0.0000
   3 C3           1.1432     2.0586     0.0015 C.ar         1    LIG   0.0000
   4 N4          -0.0017     1.3599     0.0066 N.ar         1    LIG   0.0000
   5 C5          -0.0007     0.0186    -0.0020 C.ar         1    LIG   0.0000
   6 C6           1.1966    -0.6892    -0.0166 C.ar         1    LIG   0.0000
   7 C7           2.3921     0.0210    -0.0219 C.ar         1    LIG   0.0000
   8 C8           3.6382    -0.7208    -0.0370 C.2          1    LIG   0.0000
   9 C9           4.7609    -0.4115    -0.7443 C.2          1    LIG   0.0000
  10 C10          5.8512    -1.3055    -0.5796 C.2          1    LIG   0.0000
  11 C11          5.5703    -2.3312     0.2729 C.2          1    LIG   0.0000
  12 C12          6.4895    -3.4711     0.6906 C.1          1    LIG   0.0000
  13 N13          7.1776    -4.3245     1.0034 N.1          1    LIG   0.0000
  14 S14          3.9731    -2.1461     0.8341 S.3          1    LIG   0.0000
  15 H            3.4377     3.1997    -0.0103 H            1    LIG   0.0000
  16 H            4.2004     1.9992     0.7920 H            1    LIG   0.0000
  17 H            4.1865     2.0097    -0.8409 H            1    LIG   0.0000
  18 H            1.1110     3.0580     0.0081 H            1    LIG   0.0000
  19 H           -0.8691    -0.4772     0.0021 H            1    LIG   0.0000
  20 H            1.1976    -1.6892    -0.0231 H            1    LIG   0.0000
  21 H            4.8132     0.3907    -1.3390 H            1    LIG   0.0000
  22 H            6.7319    -1.1945    -1.0401 H            1    LIG   0.0000
@<TRIPOS>BOND
   1        1        2 1
   2        2        3 ar
   3        3        4 ar
   4        4        5 ar
   5        5        6 ar
   6        6        7 ar
   7        7        2 ar
   8        7        8 1
   9        8        9 2
  10        9       10 1
  11       10       11 2
  12       11       12 1
  13       12       13 3
  14       11       14 1
  15       14        8 1
  16        1       15 1
  17        1       16 1
  18        1       17 1
  19        3       18 1
  20        5       19 1
  21        6       20 1
  22        9       21 1
  23       10       22 1

@<TRIPOS>MOLECULE

  22   23
SMALL
USER_CHARGES
@<TRIPOS>ATOM
   1 C1           3.6598     2.2247    -0.0185 C.3          1    LIG   0.0000
   2 C2           2.3748     1.4122    -0.0128 C.ar         1    LIG   0.0000
   3 C3           1.1432     2.0586     0.0015 C.ar         1    LIG   0.0000
   4 N4          -0.0017     1.3599     0.0066 N.ar         1    LIG   0.0000
   5 C5          -0.0007     0.0186    -0.0020 C.ar         1    LIG   0.0000
   6 C6           1.1966    -0.6892    -0.0166 C.ar         1    LIG   0.0000
   7 C7           2.3921     0.0210    -0.0219 C.ar         1    LIG   0.0000
   8 C8           3.6382    -0.7208    -0.0370 C.2          1    LIG   0.0000
   9 C9           4.6234    -0.6761     0.9029 C.2          1    LIG   0.0000
  10 C10          5.7461    -1.5073     0.6499 C.2          1    LIG   0.0000
  11 C11          5.6316    -2.2123    -0.5109 C.2          1    LIG   0.0000
  12 C12          6.6298    -3.1987    -1.1019 C.1          1    LIG   0.0000
  13 N13          7.3771    -3.9372    -1.5443 N.1          1    LIG   0.0000
  14 S14          4.1427    -1.8187    -1.2382 S.3          1    LIG   0.0000
  15 H            3.4377     3.1997    -0.0103 H            1    LIG   0.0000
  16 H            4.2004     1.9992     0.7920 H            1    LIG   0.0000
  17 H            4.1865     2.0097    -0.8409 H            1    LIG   0.0000
  18 H            1.1110     3.0580     0.0081 H            1    LIG   0.0000
  19 H           -0.8691    -0.4772     0.0021 H            1    LIG   0.0000
  20 H            1.1976    -1.6892    -0.0231 H            1    LIG   0.0000
  21 H            4.5600    -0.0972     1.7158 H            1    LIG   0.0000
  22 H            6.5369    -1.5690     1.2588 H            1    LIG   0.0000
@<TRIPOS>BOND
   1        1        2 1
   2        2        3 ar
   3        3        4 ar
   4        4        5 ar
   5        5        6 ar
   6        6        7 ar
   7        7        2 ar
   8        7        8 1
   9        8        9 2
  10        9       10 1
  11       10       11 2
  12       11       12 1
  13       12       13 3
  14       11       14 1
  15       14        8 1
  16        1       15 1
  17        1       16 1
  18        1       17 1
  19        3       18 1
  20        5       19 1
  21        6       20 1
  22        9       21 1
  23       10       22 1

@<TRIPOS>MOLECULE

  22   23
SMALL
USER_CHARGES
@<TRIPOS>ATOM
   1 C1           3.6598     2.2247    -0.0185 C.3          1    LIG   0.0000
   2 C2           2.3748     1.4122    -0.0128 C.ar         1    LIG   0.0000
   3 C3           1.1432     2.0586     0.0015 C.ar         1    LIG   0.0000
   4 N4          -0.0017     1.3599     0.0066 N.ar         1    LIG   0.0000
   5 C5          -0.0007     0.0186    -0.0020 C.ar         1    LIG   0.0000
   6 C6           1.1966    -0.6892    -0.0166 C.ar         1    LIG   0.0000
   7 C7           2.3921     0.0210    -0.0219 C.ar         1    LIG   0.0000
   8 C8           3.6382    -0.7208    -0.0370 C.2          1    LIG   0.0000
   9 C9           4.6105    -0.6591    -0.9894 C.2          1    LIG   0.0000
  10 C10          5.7393    -1.4898    -0.7635 C.2          1    LIG   0.0000
  11 C11          5.6423    -2.2126     0.3879 C.2          1    LIG   0.0000
  12 C12          6.6541    -3.1999     0.9538 C.1          1    LIG   0.0000
  13 N13          7.4116    -3.9391     1.3775 N.1          1    LIG   0.0000
  14 S14          4.1626    -1.8340     1.1413 S.3          1    LIG   0.0000
  15 H            3.4377     3.1997    -0.0103 H            1    LIG   0.0000
  16 H            4.2004     1.9992     0.7920 H            1    LIG   0.0000
  17 H            4.1865     2.0097    -0.8409 H            1    LIG   0.0000
  18 H            1.1110     3.0580     0.0081 H            1    LIG   0.0000
  19 H           -0.8691    -0.4772     0.0021 H            1    LIG   0.0000
  20 H            1.1976    -1.6892    -0.0231 H            1    LIG   0.0000
  21 H            4.5342    -0.0688    -1.7929 H            1    LIG   0.0000
  22 H            6.5224    -1.5394    -1.3834 H            1    LIG   0.0000
@<TRIPOS>BOND
   1        1        2 1
   2        2        3 ar
   3        3        4 ar
   4        4        5 ar
   5        5        6 ar
   6        6        7 ar
   7        7        2 ar
   8        7        8 1
   9        8        9 2
  10        9       10 1
  11       10       11 2
  12       11       12 1
  13       12       13 3
  14       11       14 1
  15       14        8 1
  16        1       15 1
  17        1       16 1
  18        1       17 1
  19        3       18 1
  20        5       19 1
  21        6       20 1
  22        9       21 1
  23       10       22 1

