@<TRIPOS>MOLECULE
*****
 22 23 0 0 0
SMALL
USER_CHARGES

@<TRIPOS>ATOM
      1 C1          3.6598    2.2247   -0.0185 C.3     1  LIG1        0.0000
      2 C2          2.3748    1.4122   -0.0128 C.ar    1  LIG1        0.0000
      3 C3          1.1432    2.0586    0.0015 C.ar    1  LIG1        0.0000
      4 N4         -0.0017    1.3599    0.0066 N.ar    1  LIG1        0.0000
      5 C5         -0.0007    0.0186   -0.0020 C.ar    1  LIG1        0.0000
      6 C6          1.1966   -0.6892   -0.0166 C.ar    1  LIG1        0.0000
      7 C7          2.3921    0.0210   -0.0219 C.ar    1  LIG1        0.0000
      8 C8          3.6382   -0.7208   -0.0370 C.2     1  LIG1        0.0000
      9 C9          4.6234   -0.6761    0.9029 C.2     1  LIG1        0.0000
     10 C10         5.7461   -1.5073    0.6499 C.2     1  LIG1        0.0000
     11 C11         5.6316   -2.2123   -0.5109 C.2     1  LIG1        0.0000
     12 C12         6.6298   -3.1987   -1.1019 C.1     1  LIG1        0.0000
     13 N13         7.3771   -3.9372   -1.5443 N.1     1  LIG1        0.0000
     14 S14         4.1427   -1.8187   -1.2382 S.3     1  LIG1        0.0000
     15 H           3.4377    3.1997   -0.0103 H       1  LIG1        0.0000
     16 H           4.2004    1.9992    0.7920 H       1  LIG1        0.0000
     17 H           4.1865    2.0097   -0.8409 H       1  LIG1        0.0000
     18 H           1.1110    3.0580    0.0081 H       1  LIG1        0.0000
     19 H          -0.8691   -0.4772    0.0021 H       1  LIG1        0.0000
     20 H           1.1976   -1.6892   -0.0231 H       1  LIG1        0.0000
     21 H           4.5600   -0.0972    1.7158 H       1  LIG1        0.0000
     22 H           6.5369   -1.5690    1.2588 H       1  LIG1        0.0000
@<TRIPOS>BOND
     1     1     2    1
     2     2     3   ar
     3     3     4   ar
     4     4     5   ar
     5     5     6   ar
     6     6     7   ar
     7     7     2   ar
     8     7     8    1
     9     8     9    2
    10     9    10    1
    11    10    11    2
    12    11    12    1
    13    12    13    3
    14    11    14    1
    15    14     8    1
    16     1    15    1
    17     1    16    1
    18     1    17    1
    19     3    18    1
    20     5    19    1
    21     6    20    1
    22     9    21    1
    23    10    22    1
