@<TRIPOS>MOLECULE

  46   49
SMALL
USER_CHARGES
@<TRIPOS>ATOM
   1 C1           6.3214     5.2139    -0.0056 C.3          1    LIG   0.0000
   2 O2           5.5840     4.0059    -0.1220 O.3          1    LIG   0.0000
   3 C3           5.2426     3.4422     1.0101 C.2          1    LIG   0.0000
   4 O4           5.5550     3.9501     2.0515 O.2          1    LIG   0.0000
   5 C5           4.4872     2.2043     1.0049 C.ar         1    LIG   0.0000
   6 C6           5.1826     1.0001     1.0001 C.ar         1    LIG   0.0000
   7 C7           4.4869    -0.2047     0.9945 C.ar         1    LIG   0.0000
   8 C8           3.0962    -0.2047     0.9946 C.ar         1    LIG   0.0000
   9 C9           2.3361    -1.5212     0.9885 C.3          1    LIG   0.0000
  10 C10          2.4006     1.0000     1.0000 C.ar         1    LIG   0.0000
  11 N11          1.0000     1.0000     1.0000 N.am         1    LIG   0.0000
  12 C12          0.3150     0.9954     2.1864 C.2          1    LIG   0.0000
  13 O13          0.9150     0.9914     3.2257 O.2          1    LIG   0.0000
  14 C14         -1.1322     0.9954     2.1864 C.2          1    LIG   0.0000
  15 C15         -1.9587     0.9972     1.0981 C.2          1    LIG   0.0000
  16 C16         -3.3619     0.9998     1.3613 C.2          1    LIG   0.0000
  17 C17         -4.6937     1.0168     0.8448 C.ar         1    LIG   0.0000
  18 C18         -5.2839     1.0283    -0.4162 C.ar         1    LIG   0.0000
  19 C19         -6.6665     1.0504    -0.5767 C.ar         1    LIG   0.0000
  20 C20         -7.5188     1.0561     0.5243 C.ar         1    LIG   0.0000
  21 C21         -6.9669     1.0363     1.7980 C.ar         1    LIG   0.0000
  22 C22         -5.5800     1.0155     1.8983 C.ar         1    LIG   0.0000
  23 N23         -4.8569     0.9916     3.0419 N.pl3        1    LIG   0.0000
  24 C24         -5.3877     0.9718     4.4152 C.3          1    LIG   0.0000
  25 C25         -3.5525     0.9969     2.6868 C.2          1    LIG   0.0000
  26 S26         -2.1088     0.9900     3.5822 S.3          1    LIG   0.0000
  27 C27          3.0961     2.2045     1.0047 C.ar         1    LIG   0.0000
  28 O28          2.4209     3.3740     1.0093 O.3          1    LIG   0.0000
  29 H            6.5332     5.5644    -0.9178 H            1    LIG   0.0000
  30 H            5.7781     5.8892     0.4932 H            1    LIG   0.0000
  31 H            7.1721     5.0386     0.4900 H            1    LIG   0.0000
  32 H            6.1826     1.0002     1.0006 H            1    LIG   0.0000
  33 H            4.9869    -1.0707     0.9903 H            1    LIG   0.0000
  34 H            2.9860    -2.2812     0.9852 H            1    LIG   0.0000
  35 H            1.7611    -1.5779     1.8047 H            1    LIG   0.0000
  36 H            1.7614    -1.5704     0.1717 H            1    LIG   0.0000
  37 H            0.5000     1.0034     0.1340 H            1    LIG   0.0000
  38 H           -1.5990     0.9967     0.1650 H            1    LIG   0.0000
  39 H           -4.6994     1.0205    -1.2276 H            1    LIG   0.0000
  40 H           -7.0542     1.0623    -1.4984 H            1    LIG   0.0000
  41 H           -8.5108     1.0740     0.3998 H            1    LIG   0.0000
  42 H           -7.5455     1.0371     2.6136 H            1    LIG   0.0000
  43 H           -4.6284     0.9560     5.0658 H            1    LIG   0.0000
  44 H           -5.9423     1.7893     4.5701 H            1    LIG   0.0000
  45 H           -5.9527     0.1566     4.5425 H            1    LIG   0.0000
  46 H            2.9209     4.2400     1.0126 H            1    LIG   0.0000
@<TRIPOS>BOND
   1        1        2 1
   2        2        3 1
   3        3        4 2
   4        3        5 1
   5        5        6 ar
   6        6        7 ar
   7        7        8 ar
   8        8        9 1
   9        8       10 ar
  10       10       11 1
  11       11       12 am
  12       12       13 2
  13       12       14 1
  14       14       15 2
  15       15       16 1
  16       16       17 1
  17       17       18 ar
  18       18       19 ar
  19       19       20 ar
  20       20       21 ar
  21       21       22 ar
  22       22       17 ar
  23       22       23 1
  24       23       24 1
  25       23       25 1
  26       25       16 2
  27       25       26 1
  28       26       14 1
  29       10       27 ar
  30       27        5 ar
  31       27       28 1
  32        1       29 1
  33        1       30 1
  34        1       31 1
  35        6       32 1
  36        7       33 1
  37        9       34 1
  38        9       35 1
  39        9       36 1
  40       11       37 1
  41       15       38 1
  42       18       39 1
  43       19       40 1
  44       20       41 1
  45       21       42 1
  46       24       43 1
  47       24       44 1
  48       24       45 1
  49       28       46 1

@<TRIPOS>MOLECULE

  46   49
SMALL
USER_CHARGES
@<TRIPOS>ATOM
   1 C1           6.3214     5.2139    -0.0056 C.3          1    LIG   0.0000
   2 O2           5.5840     4.0059    -0.1220 O.3          1    LIG   0.0000
   3 C3           5.2426     3.4422     1.0101 C.2          1    LIG   0.0000
   4 O4           5.5550     3.9501     2.0515 O.2          1    LIG   0.0000
   5 C5           4.4872     2.2043     1.0049 C.ar         1    LIG   0.0000
   6 C6           5.1826     1.0001     1.0001 C.ar         1    LIG   0.0000
   7 C7           4.4869    -0.2047     0.9945 C.ar         1    LIG   0.0000
   8 C8           3.0962    -0.2047     0.9946 C.ar         1    LIG   0.0000
   9 C9           2.3361    -1.5212     0.9885 C.3          1    LIG   0.0000
  10 C10          2.4006     1.0000     1.0000 C.ar         1    LIG   0.0000
  11 N11          1.0000     1.0000     1.0000 N.am         1    LIG   0.0000
  12 C12          0.3150     0.9954     2.1864 C.2          1    LIG   0.0000
  13 O13          0.9150     0.9914     3.2257 O.2          1    LIG   0.0000
  14 C14         -1.1322     0.9954     2.1864 C.2          1    LIG   0.0000
  15 C15         -1.9587     0.4528     1.2430 C.2          1    LIG   0.0000
  16 C16         -3.3619     0.5867     1.4696 C.2          1    LIG   0.0000
  17 C17         -4.6937     0.3431     1.0139 C.ar         1    LIG   0.0000
  18 C18         -5.2839    -0.2775    -0.0840 C.ar         1    LIG   0.0000
  19 C19         -6.6665    -0.3386    -0.2340 C.ar         1    LIG   0.0000
  20 C20         -7.5188     0.2169     0.7167 C.ar         1    LIG   0.0000
  21 C21         -6.9669     0.8367     1.8296 C.ar         1    LIG   0.0000
  22 C22         -5.5800     0.8688     1.9268 C.ar         1    LIG   0.0000
  23 N23         -4.8569     1.4199     2.9292 N.pl3        1    LIG   0.0000
  24 C24         -5.3877     2.0894     4.1284 C.3          1    LIG   0.0000
  25 C25         -3.5525     1.2469     2.6191 C.2          1    LIG   0.0000
  26 S26         -2.1088     1.6886     3.3979 S.3          1    LIG   0.0000
  27 C27          3.0961     2.2045     1.0047 C.ar         1    LIG   0.0000
  28 O28          2.4209     3.3740     1.0093 O.3          1    LIG   0.0000
  29 H            6.5332     5.5644    -0.9178 H            1    LIG   0.0000
  30 H            5.7781     5.8892     0.4932 H            1    LIG   0.0000
  31 H            7.1721     5.0386     0.4900 H            1    LIG   0.0000
  32 H            6.1826     1.0002     1.0006 H            1    LIG   0.0000
  33 H            4.9869    -1.0707     0.9903 H            1    LIG   0.0000
  34 H            2.9860    -2.2812     0.9852 H            1    LIG   0.0000
  35 H            1.7611    -1.5779     1.8047 H            1    LIG   0.0000
  36 H            1.7614    -1.5704     0.1717 H            1    LIG   0.0000
  37 H            0.5000     1.0034     0.1340 H            1    LIG   0.0000
  38 H           -1.5990    -0.0142     0.4352 H            1    LIG   0.0000
  39 H           -4.6994    -0.6899    -0.7828 H            1    LIG   0.0000
  40 H           -7.0542    -0.7891    -1.0382 H            1    LIG   0.0000
  41 H           -8.5108     0.1702     0.5999 H            1    LIG   0.0000
  42 H           -7.5455     1.2451     2.5356 H            1    LIG   0.0000
  43 H           -4.6284     2.4010     4.6997 H            1    LIG   0.0000
  44 H           -5.9423     2.8748     3.8537 H            1    LIG   0.0000
  45 H           -5.9527     1.4470     4.6462 H            1    LIG   0.0000
  46 H            2.9209     4.2400     1.0126 H            1    LIG   0.0000
@<TRIPOS>BOND
   1        1        2 1
   2        2        3 1
   3        3        4 2
   4        3        5 1
   5        5        6 ar
   6        6        7 ar
   7        7        8 ar
   8        8        9 1
   9        8       10 ar
  10       10       11 1
  11       11       12 am
  12       12       13 2
  13       12       14 1
  14       14       15 2
  15       15       16 1
  16       16       17 1
  17       17       18 ar
  18       18       19 ar
  19       19       20 ar
  20       20       21 ar
  21       21       22 ar
  22       22       17 ar
  23       22       23 1
  24       23       24 1
  25       23       25 1
  26       25       16 2
  27       25       26 1
  28       26       14 1
  29       10       27 ar
  30       27        5 ar
  31       27       28 1
  32        1       29 1
  33        1       30 1
  34        1       31 1
  35        6       32 1
  36        7       33 1
  37        9       34 1
  38        9       35 1
  39        9       36 1
  40       11       37 1
  41       15       38 1
  42       18       39 1
  43       19       40 1
  44       20       41 1
  45       21       42 1
  46       24       43 1
  47       24       44 1
  48       24       45 1
  49       28       46 1

@<TRIPOS>MOLECULE

  46   49
SMALL
USER_CHARGES
@<TRIPOS>ATOM
   1 C1           6.3214     5.2139    -0.0056 C.3          1    LIG   0.0000
   2 O2           5.5840     4.0059    -0.1220 O.3          1    LIG   0.0000
   3 C3           5.2426     3.4422     1.0101 C.2          1    LIG   0.0000
   4 O4           5.5550     3.9501     2.0515 O.2          1    LIG   0.0000
   5 C5           4.4872     2.2043     1.0049 C.ar         1    LIG   0.0000
   6 C6           5.1826     1.0001     1.0001 C.ar         1    LIG   0.0000
   7 C7           4.4869    -0.2047     0.9945 C.ar         1    LIG   0.0000
   8 C8           3.0962    -0.2047     0.9946 C.ar         1    LIG   0.0000
   9 C9           2.3361    -1.5212     0.9885 C.3          1    LIG   0.0000
  10 C10          2.4006     1.0000     1.0000 C.ar         1    LIG   0.0000
  11 N11          1.0000     1.0000     1.0000 N.am         1    LIG   0.0000
  12 C12          0.3150     0.9954     2.1864 C.2          1    LIG   0.0000
  13 O13          0.7944     1.5113     3.1581 O.2          1    LIG   0.0000
  14 C14         -0.9867     0.3684     2.2680 C.2          1    LIG   0.0000
  15 C15         -1.6660    -0.2597     1.2622 C.2          1    LIG   0.0000
  16 C16         -2.9451    -0.7997     1.5949 C.2          1    LIG   0.0000
  17 C17         -4.1196    -1.4909     1.1666 C.ar         1    LIG   0.0000
  18 C18         -4.5802    -2.0514    -0.0219 C.ar         1    LIG   0.0000
  19 C19         -5.8238    -2.6713    -0.1046 C.ar         1    LIG   0.0000
  20 C20         -6.6587    -2.7608     1.0061 C.ar         1    LIG   0.0000
  21 C21         -6.2297    -2.2208     2.2110 C.ar         1    LIG   0.0000
  22 C22         -4.9792    -1.6130     2.2350 C.ar         1    LIG   0.0000
  23 N23         -4.3867    -1.0350     3.3055 N.pl3        1    LIG   0.0000
  24 C24         -4.9375    -0.9393     4.6677 C.3          1    LIG   0.0000
  25 C25         -3.1944    -0.5540     2.8876 C.2          1    LIG   0.0000
  26 S26         -1.9462     0.2890     3.6733 S.3          1    LIG   0.0000
  27 C27          3.0961     2.2045     1.0047 C.ar         1    LIG   0.0000
  28 O28          2.4209     3.3740     1.0093 O.3          1    LIG   0.0000
  29 H            6.5332     5.5644    -0.9178 H            1    LIG   0.0000
  30 H            5.7781     5.8892     0.4932 H            1    LIG   0.0000
  31 H            7.1721     5.0386     0.4900 H            1    LIG   0.0000
  32 H            6.1826     1.0002     1.0006 H            1    LIG   0.0000
  33 H            4.9869    -1.0707     0.9903 H            1    LIG   0.0000
  34 H            2.9860    -2.2812     0.9852 H            1    LIG   0.0000
  35 H            1.7611    -1.5779     1.8047 H            1    LIG   0.0000
  36 H            1.7614    -1.5704     0.1717 H            1    LIG   0.0000
  37 H            0.5000     1.0034     0.1340 H            1    LIG   0.0000
  38 H           -1.2866    -0.3372     0.3402 H            1    LIG   0.0000
  39 H           -4.0026    -2.0075    -0.8371 H            1    LIG   0.0000
  40 H           -6.1227    -3.0590    -0.9766 H            1    LIG   0.0000
  41 H           -7.5514    -3.2061     0.9372 H            1    LIG   0.0000
  42 H           -6.7992    -2.2673     3.0317 H            1    LIG   0.0000
  43 H           -4.2865    -0.4617     5.2577 H            1    LIG   0.0000
  44 H           -5.7995    -0.4329     4.6439 H            1    LIG   0.0000
  45 H           -5.1005    -1.8583     5.0267 H            1    LIG   0.0000
  46 H            2.9209     4.2400     1.0126 H            1    LIG   0.0000
@<TRIPOS>BOND
   1        1        2 1
   2        2        3 1
   3        3        4 2
   4        3        5 1
   5        5        6 ar
   6        6        7 ar
   7        7        8 ar
   8        8        9 1
   9        8       10 ar
  10       10       11 1
  11       11       12 am
  12       12       13 2
  13       12       14 1
  14       14       15 2
  15       15       16 1
  16       16       17 1
  17       17       18 ar
  18       18       19 ar
  19       19       20 ar
  20       20       21 ar
  21       21       22 ar
  22       22       17 ar
  23       22       23 1
  24       23       24 1
  25       23       25 1
  26       25       16 2
  27       25       26 1
  28       26       14 1
  29       10       27 ar
  30       27        5 ar
  31       27       28 1
  32        1       29 1
  33        1       30 1
  34        1       31 1
  35        6       32 1
  36        7       33 1
  37        9       34 1
  38        9       35 1
  39        9       36 1
  40       11       37 1
  41       15       38 1
  42       18       39 1
  43       19       40 1
  44       20       41 1
  45       21       42 1
  46       24       43 1
  47       24       44 1
  48       24       45 1
  49       28       46 1

@<TRIPOS>MOLECULE

  46   49
SMALL
USER_CHARGES
@<TRIPOS>ATOM
   1 C1           6.3214     5.2139    -0.0056 C.3          1    LIG   0.0000
   2 O2           5.5840     4.0059    -0.1220 O.3          1    LIG   0.0000
   3 C3           5.2426     3.4422     1.0101 C.2          1    LIG   0.0000
   4 O4           5.5550     3.9501     2.0515 O.2          1    LIG   0.0000
   5 C5           4.4872     2.2043     1.0049 C.ar         1    LIG   0.0000
   6 C6           5.1826     1.0001     1.0001 C.ar         1    LIG   0.0000
   7 C7           4.4869    -0.2047     0.9945 C.ar         1    LIG   0.0000
   8 C8           3.0962    -0.2047     0.9946 C.ar         1    LIG   0.0000
   9 C9           2.3361    -1.5212     0.9885 C.3          1    LIG   0.0000
  10 C10          2.4006     1.0000     1.0000 C.ar         1    LIG   0.0000
  11 N11          1.0000     1.0000     1.0000 N.am         1    LIG   0.0000
  12 C12          0.3150     0.9954     2.1864 C.2          1    LIG   0.0000
  13 O13          0.7944     0.4720     3.1540 O.2          1    LIG   0.0000
  14 C14         -0.9867     1.6217     2.2728 C.2          1    LIG   0.0000
  15 C15         -1.6681     2.2535     1.2707 C.2          1    LIG   0.0000
  16 C16         -2.9440     2.7972     1.6095 C.2          1    LIG   0.0000
  17 C17         -4.1055     3.5175     1.1941 C.ar         1    LIG   0.0000
  18 C18         -4.5604     4.0987     0.0133 C.ar         1    LIG   0.0000
  19 C19         -5.7855     4.7563    -0.0537 C.ar         1    LIG   0.0000
  20 C20         -6.6117     4.8544     1.0627 C.ar         1    LIG   0.0000
  21 C21         -6.1956     4.2796     2.2559 C.ar         1    LIG   0.0000
  22 C22         -4.9627     3.6363     2.2648 C.ar         1    LIG   0.0000
  23 N23         -4.3871     3.0163     3.3210 N.pl3        1    LIG   0.0000
  24 C24         -4.9504     2.8849     4.6751 C.3          1    LIG   0.0000
  25 C25         -3.1915     2.5452     2.9013 C.2          1    LIG   0.0000
  26 S26         -1.9462     1.6902     3.6788 S.3          1    LIG   0.0000
  27 C27          3.0961     2.2045     1.0047 C.ar         1    LIG   0.0000
  28 O28          2.4209     3.3740     1.0093 O.3          1    LIG   0.0000
  29 H            6.5332     5.5644    -0.9178 H            1    LIG   0.0000
  30 H            5.7781     5.8892     0.4932 H            1    LIG   0.0000
  31 H            7.1721     5.0386     0.4900 H            1    LIG   0.0000
  32 H            6.1826     1.0002     1.0006 H            1    LIG   0.0000
  33 H            4.9869    -1.0707     0.9903 H            1    LIG   0.0000
  34 H            2.9860    -2.2812     0.9852 H            1    LIG   0.0000
  35 H            1.7611    -1.5779     1.8047 H            1    LIG   0.0000
  36 H            1.7614    -1.5704     0.1717 H            1    LIG   0.0000
  37 H            0.5000     1.0034     0.1340 H            1    LIG   0.0000
  38 H           -1.2922     2.3310     0.3473 H            1    LIG   0.0000
  39 H           -3.9923     4.0422    -0.8077 H            1    LIG   0.0000
  40 H           -6.0772     5.1653    -0.9184 H            1    LIG   0.0000
  41 H           -7.4893     5.3305     1.0061 H            1    LIG   0.0000
  42 H           -6.7617     4.3264     3.0789 H            1    LIG   0.0000
  43 H           -4.3110     2.3797     5.2546 H            1    LIG   0.0000
  44 H           -5.1039     3.7942     5.0619 H            1    LIG   0.0000
  45 H           -5.8190     2.3916     4.6283 H            1    LIG   0.0000
  46 H            2.9209     4.2400     1.0126 H            1    LIG   0.0000
@<TRIPOS>BOND
   1        1        2 1
   2        2        3 1
   3        3        4 2
   4        3        5 1
   5        5        6 ar
   6        6        7 ar
   7        7        8 ar
   8        8        9 1
   9        8       10 ar
  10       10       11 1
  11       11       12 am
  12       12       13 2
  13       12       14 1
  14       14       15 2
  15       15       16 1
  16       16       17 1
  17       17       18 ar
  18       18       19 ar
  19       19       20 ar
  20       20       21 ar
  21       21       22 ar
  22       22       17 ar
  23       22       23 1
  24       23       24 1
  25       23       25 1
  26       25       16 2
  27       25       26 1
  28       26       14 1
  29       10       27 ar
  30       27        5 ar
  31       27       28 1
  32        1       29 1
  33        1       30 1
  34        1       31 1
  35        6       32 1
  36        7       33 1
  37        9       34 1
  38        9       35 1
  39        9       36 1
  40       11       37 1
  41       15       38 1
  42       18       39 1
  43       19       40 1
  44       20       41 1
  45       21       42 1
  46       24       43 1
  47       24       44 1
  48       24       45 1
  49       28       46 1

@<TRIPOS>MOLECULE

  46   49
SMALL
USER_CHARGES
@<TRIPOS>ATOM
   1 C1           6.3214     5.2139    -0.0056 C.3          1    LIG   0.0000
   2 O2           5.5840     4.0059    -0.1220 O.3          1    LIG   0.0000
   3 C3           5.2426     3.4422     1.0101 C.2          1    LIG   0.0000
   4 O4           5.5550     3.9501     2.0515 O.2          1    LIG   0.0000
   5 C5           4.4872     2.2043     1.0049 C.ar         1    LIG   0.0000
   6 C6           5.1826     1.0001     1.0001 C.ar         1    LIG   0.0000
   7 C7           4.4869    -0.2047     0.9945 C.ar         1    LIG   0.0000
   8 C8           3.0962    -0.2047     0.9946 C.ar         1    LIG   0.0000
   9 C9           2.3361    -1.5212     0.9885 C.3          1    LIG   0.0000
  10 C10          2.4006     1.0000     1.0000 C.ar         1    LIG   0.0000
  11 N11          1.0000     1.0000     1.0000 N.am         1    LIG   0.0000
  12 C12          0.3150     0.9954     2.1864 C.2          1    LIG   0.0000
  13 O13          0.7944     0.4720     3.1540 O.2          1    LIG   0.0000
  14 C14         -0.9867     1.6217     2.2728 C.2          1    LIG   0.0000
  15 C15         -1.9121     1.7457     1.2749 C.2          1    LIG   0.0000
  16 C16         -3.1291     2.4122     1.6111 C.2          1    LIG   0.0000
  17 C17         -4.4069     2.8918     1.1893 C.ar         1    LIG   0.0000
  18 C18         -5.1448     2.8847     0.0085 C.ar         1    LIG   0.0000
  19 C19         -6.4066     3.4677    -0.0692 C.ar         1    LIG   0.0000
  20 C20         -6.9861     4.0795     1.0392 C.ar         1    LIG   0.0000
  21 C21         -6.2839     4.0987     2.2366 C.ar         1    LIG   0.0000
  22 C22         -5.0279     3.5020     2.2558 C.ar         1    LIG   0.0000
  23 N23         -4.1952     3.4154     3.3189 N.pl3        1    LIG   0.0000
  24 C24         -4.4501     3.9246     4.6768 C.3          1    LIG   0.0000
  25 C25         -3.0793     2.7786     2.8982 C.2          1    LIG   0.0000
  26 S26         -1.6332     2.3413     3.6750 S.3          1    LIG   0.0000
  27 C27          3.0961     2.2045     1.0047 C.ar         1    LIG   0.0000
  28 O28          2.4209     3.3740     1.0093 O.3          1    LIG   0.0000
  29 H            6.5332     5.5644    -0.9178 H            1    LIG   0.0000
  30 H            5.7781     5.8892     0.4932 H            1    LIG   0.0000
  31 H            7.1721     5.0386     0.4900 H            1    LIG   0.0000
  32 H            6.1826     1.0002     1.0006 H            1    LIG   0.0000
  33 H            4.9869    -1.0707     0.9903 H            1    LIG   0.0000
  34 H            2.9860    -2.2812     0.9852 H            1    LIG   0.0000
  35 H            1.7611    -1.5779     1.8047 H            1    LIG   0.0000
  36 H            1.7614    -1.5704     0.1717 H            1    LIG   0.0000
  37 H            0.5000     1.0034     0.1340 H            1    LIG   0.0000
  38 H           -1.7454     1.3879     0.3561 H            1    LIG   0.0000
  39 H           -4.7584     2.4495    -0.8047 H            1    LIG   0.0000
  40 H           -6.9052     3.4467    -0.9357 H            1    LIG   0.0000
  41 H           -7.8921     4.4977     0.9739 H            1    LIG   0.0000
  42 H           -6.6671     4.5261     3.0554 H            1    LIG   0.0000
  43 H           -3.6643     3.7228     5.2615 H            1    LIG   0.0000
  44 H           -4.5933     4.9136     4.6405 H            1    LIG   0.0000
  45 H           -5.2658     3.4832     5.0507 H            1    LIG   0.0000
  46 H            2.9209     4.2400     1.0126 H            1    LIG   0.0000
@<TRIPOS>BOND
   1        1        2 1
   2        2        3 1
   3        3        4 2
   4        3        5 1
   5        5        6 ar
   6        6        7 ar
   7        7        8 ar
   8        8        9 1
   9        8       10 ar
  10       10       11 1
  11       11       12 am
  12       12       13 2
  13       12       14 1
  14       14       15 2
  15       15       16 1
  16       16       17 1
  17       17       18 ar
  18       18       19 ar
  19       19       20 ar
  20       20       21 ar
  21       21       22 ar
  22       22       17 ar
  23       22       23 1
  24       23       24 1
  25       23       25 1
  26       25       16 2
  27       25       26 1
  28       26       14 1
  29       10       27 ar
  30       27        5 ar
  31       27       28 1
  32        1       29 1
  33        1       30 1
  34        1       31 1
  35        6       32 1
  36        7       33 1
  37        9       34 1
  38        9       35 1
  39        9       36 1
  40       11       37 1
  41       15       38 1
  42       18       39 1
  43       19       40 1
  44       20       41 1
  45       21       42 1
  46       24       43 1
  47       24       44 1
  48       24       45 1
  49       28       46 1

@<TRIPOS>MOLECULE

  46   49
SMALL
USER_CHARGES
@<TRIPOS>ATOM
   1 C1           6.3214     5.2139    -0.0056 C.3          1    LIG   0.0000
   2 O2           5.5840     4.0059    -0.1220 O.3          1    LIG   0.0000
   3 C3           5.2426     3.4422     1.0101 C.2          1    LIG   0.0000
   4 O4           5.5550     3.9501     2.0515 O.2          1    LIG   0.0000
   5 C5           4.4872     2.2043     1.0049 C.ar         1    LIG   0.0000
   6 C6           5.1826     1.0001     1.0001 C.ar         1    LIG   0.0000
   7 C7           4.4869    -0.2047     0.9945 C.ar         1    LIG   0.0000
   8 C8           3.0962    -0.2047     0.9946 C.ar         1    LIG   0.0000
   9 C9           2.3361    -1.5212     0.9885 C.3          1    LIG   0.0000
  10 C10          2.4006     1.0000     1.0000 C.ar         1    LIG   0.0000
  11 N11          1.0000     1.0000     1.0000 N.am         1    LIG   0.0000
  12 C12          0.3150     0.9954     2.1864 C.2          1    LIG   0.0000
  13 O13          0.7944     0.4720     3.1540 O.2          1    LIG   0.0000
  14 C14         -0.9867     1.6217     2.2728 C.2          1    LIG   0.0000
  15 C15         -1.4407     2.6878     1.5483 C.2          1    LIG   0.0000
  16 C16         -2.7719     3.1257     1.8213 C.2          1    LIG   0.0000
  17 C17         -3.8269     4.0483     1.5449 C.ar         1    LIG   0.0000
  18 C18         -4.0191     5.1304     0.6900 C.ar         1    LIG   0.0000
  19 C19         -5.2126     5.8469     0.6737 C.ar         1    LIG   0.0000
  20 C20         -6.2695     5.5038     1.5127 C.ar         1    LIG   0.0000
  21 C21         -6.1179     4.4249     2.3731 C.ar         1    LIG   0.0000
  22 C22         -4.9042     3.7465     2.3472 C.ar         1    LIG   0.0000
  23 N23         -4.5656     2.6755     3.1018 N.pl3        1    LIG   0.0000
  24 C24         -5.4144     2.0003     4.0977 C.3          1    LIG   0.0000
  25 C25         -3.2962     2.3449     2.7747 C.2          1    LIG   0.0000
  26 S26         -2.2375     1.1340     3.3214 S.3          1    LIG   0.0000
  27 C27          3.0961     2.2045     1.0047 C.ar         1    LIG   0.0000
  28 O28          2.4209     3.3740     1.0093 O.3          1    LIG   0.0000
  29 H            6.5332     5.5644    -0.9178 H            1    LIG   0.0000
  30 H            5.7781     5.8892     0.4932 H            1    LIG   0.0000
  31 H            7.1721     5.0386     0.4900 H            1    LIG   0.0000
  32 H            6.1826     1.0002     1.0006 H            1    LIG   0.0000
  33 H            4.9869    -1.0707     0.9903 H            1    LIG   0.0000
  34 H            2.9860    -2.2812     0.9852 H            1    LIG   0.0000
  35 H            1.7611    -1.5779     1.8047 H            1    LIG   0.0000
  36 H            1.7614    -1.5704     0.1717 H            1    LIG   0.0000
  37 H            0.5000     1.0034     0.1340 H            1    LIG   0.0000
  38 H           -0.8697     3.1382     0.8619 H            1    LIG   0.0000
  39 H           -3.2807     5.3999     0.0718 H            1    LIG   0.0000
  40 H           -5.3125     6.6211     0.0487 H            1    LIG   0.0000
  41 H           -7.1226     6.0253     1.4958 H            1    LIG   0.0000
  42 H           -6.8546     4.1457     2.9890 H            1    LIG   0.0000
  43 H           -4.9095     1.2390     4.5047 H            1    LIG   0.0000
  44 H           -5.6707     2.6505     4.8129 H            1    LIG   0.0000
  45 H           -6.2393     1.6528     3.6519 H            1    LIG   0.0000
  46 H            2.9209     4.2400     1.0126 H            1    LIG   0.0000
@<TRIPOS>BOND
   1        1        2 1
   2        2        3 1
   3        3        4 2
   4        3        5 1
   5        5        6 ar
   6        6        7 ar
   7        7        8 ar
   8        8        9 1
   9        8       10 ar
  10       10       11 1
  11       11       12 am
  12       12       13 2
  13       12       14 1
  14       14       15 2
  15       15       16 1
  16       16       17 1
  17       17       18 ar
  18       18       19 ar
  19       19       20 ar
  20       20       21 ar
  21       21       22 ar
  22       22       17 ar
  23       22       23 1
  24       23       24 1
  25       23       25 1
  26       25       16 2
  27       25       26 1
  28       26       14 1
  29       10       27 ar
  30       27        5 ar
  31       27       28 1
  32        1       29 1
  33        1       30 1
  34        1       31 1
  35        6       32 1
  36        7       33 1
  37        9       34 1
  38        9       35 1
  39        9       36 1
  40       11       37 1
  41       15       38 1
  42       18       39 1
  43       19       40 1
  44       20       41 1
  45       21       42 1
  46       24       43 1
  47       24       44 1
  48       24       45 1
  49       28       46 1

@<TRIPOS>MOLECULE

  46   49
SMALL
USER_CHARGES
@<TRIPOS>ATOM
   1 C1           6.3210     5.2055     2.0406 C.3          1    LIG   0.0000
   2 O2           5.5836     3.9967     2.1469 O.3          1    LIG   0.0000
   3 C3           5.2426     3.4422     1.0101 C.2          1    LIG   0.0000
   4 O4           5.5553     3.9586    -0.0270 O.2          1    LIG   0.0000
   5 C5           4.4872     2.2043     1.0049 C.ar         1    LIG   0.0000
   6 C6           5.1826     1.0001     1.0001 C.ar         1    LIG   0.0000
   7 C7           4.4869    -0.2047     0.9945 C.ar         1    LIG   0.0000
   8 C8           3.0962    -0.2047     0.9946 C.ar         1    LIG   0.0000
   9 C9           2.3361    -1.5212     0.9885 C.3          1    LIG   0.0000
  10 C10          2.4006     1.0000     1.0000 C.ar         1    LIG   0.0000
  11 N11          1.0000     1.0000     1.0000 N.am         1    LIG   0.0000
  12 C12          0.3150     0.9954     2.1864 C.2          1    LIG   0.0000
  13 O13          0.9150     0.9914     3.2257 O.2          1    LIG   0.0000
  14 C14         -1.1322     0.9954     2.1864 C.2          1    LIG   0.0000
  15 C15         -1.9587     0.9972     1.0981 C.2          1    LIG   0.0000
  16 C16         -3.3619     0.9998     1.3613 C.2          1    LIG   0.0000
  17 C17         -4.6937     1.0168     0.8448 C.ar         1    LIG   0.0000
  18 C18         -5.2839     1.0283    -0.4162 C.ar         1    LIG   0.0000
  19 C19         -6.6665     1.0504    -0.5767 C.ar         1    LIG   0.0000
  20 C20         -7.5188     1.0561     0.5243 C.ar         1    LIG   0.0000
  21 C21         -6.9669     1.0363     1.7980 C.ar         1    LIG   0.0000
  22 C22         -5.5800     1.0155     1.8983 C.ar         1    LIG   0.0000
  23 N23         -4.8569     0.9916     3.0419 N.pl3        1    LIG   0.0000
  24 C24         -5.3877     0.9718     4.4152 C.3          1    LIG   0.0000
  25 C25         -3.5525     0.9969     2.6868 C.2          1    LIG   0.0000
  26 S26         -2.1088     0.9900     3.5822 S.3          1    LIG   0.0000
  27 C27          3.0961     2.2045     1.0047 C.ar         1    LIG   0.0000
  28 O28          2.4209     3.3740     1.0093 O.3          1    LIG   0.0000
  29 H            6.5325     5.5486     2.9558 H            1    LIG   0.0000
  30 H            7.1719     5.0343     1.5439 H            1    LIG   0.0000
  31 H            5.7780     5.8849     1.5472 H            1    LIG   0.0000
  32 H            6.1826     1.0002     1.0006 H            1    LIG   0.0000
  33 H            4.9869    -1.0707     0.9903 H            1    LIG   0.0000
  34 H            2.9860    -2.2812     0.9852 H            1    LIG   0.0000
  35 H            1.7611    -1.5779     1.8047 H            1    LIG   0.0000
  36 H            1.7614    -1.5704     0.1717 H            1    LIG   0.0000
  37 H            0.5000     1.0034     0.1340 H            1    LIG   0.0000
  38 H           -1.5990     0.9967     0.1650 H            1    LIG   0.0000
  39 H           -4.6994     1.0205    -1.2276 H            1    LIG   0.0000
  40 H           -7.0542     1.0623    -1.4984 H            1    LIG   0.0000
  41 H           -8.5108     1.0740     0.3998 H            1    LIG   0.0000
  42 H           -7.5455     1.0371     2.6136 H            1    LIG   0.0000
  43 H           -4.6284     0.9560     5.0658 H            1    LIG   0.0000
  44 H           -5.9423     1.7893     4.5701 H            1    LIG   0.0000
  45 H           -5.9527     0.1566     4.5425 H            1    LIG   0.0000
  46 H            2.9209     4.2400     1.0126 H            1    LIG   0.0000
@<TRIPOS>BOND
   1        1        2 1
   2        2        3 1
   3        3        4 2
   4        3        5 1
   5        5        6 ar
   6        6        7 ar
   7        7        8 ar
   8        8        9 1
   9        8       10 ar
  10       10       11 1
  11       11       12 am
  12       12       13 2
  13       12       14 1
  14       14       15 2
  15       15       16 1
  16       16       17 1
  17       17       18 ar
  18       18       19 ar
  19       19       20 ar
  20       20       21 ar
  21       21       22 ar
  22       22       17 ar
  23       22       23 1
  24       23       24 1
  25       23       25 1
  26       25       16 2
  27       25       26 1
  28       26       14 1
  29       10       27 ar
  30       27        5 ar
  31       27       28 1
  32        1       29 1
  33        1       30 1
  34        1       31 1
  35        6       32 1
  36        7       33 1
  37        9       34 1
  38        9       35 1
  39        9       36 1
  40       11       37 1
  41       15       38 1
  42       18       39 1
  43       19       40 1
  44       20       41 1
  45       21       42 1
  46       24       43 1
  47       24       44 1
  48       24       45 1
  49       28       46 1

@<TRIPOS>MOLECULE

  46   49
SMALL
USER_CHARGES
@<TRIPOS>ATOM
   1 C1           6.3210     5.2055     2.0406 C.3          1    LIG   0.0000
   2 O2           5.5836     3.9967     2.1469 O.3          1    LIG   0.0000
   3 C3           5.2426     3.4422     1.0101 C.2          1    LIG   0.0000
   4 O4           5.5553     3.9586    -0.0270 O.2          1    LIG   0.0000
   5 C5           4.4872     2.2043     1.0049 C.ar         1    LIG   0.0000
   6 C6           5.1826     1.0001     1.0001 C.ar         1    LIG   0.0000
   7 C7           4.4869    -0.2047     0.9945 C.ar         1    LIG   0.0000
   8 C8           3.0962    -0.2047     0.9946 C.ar         1    LIG   0.0000
   9 C9           2.3361    -1.5212     0.9885 C.3          1    LIG   0.0000
  10 C10          2.4006     1.0000     1.0000 C.ar         1    LIG   0.0000
  11 N11          1.0000     1.0000     1.0000 N.am         1    LIG   0.0000
  12 C12          0.3150     0.9954     2.1864 C.2          1    LIG   0.0000
  13 O13          0.9150     0.9914     3.2257 O.2          1    LIG   0.0000
  14 C14         -1.1322     0.9954     2.1864 C.2          1    LIG   0.0000
  15 C15         -1.9587     0.4528     1.2430 C.2          1    LIG   0.0000
  16 C16         -3.3619     0.5867     1.4696 C.2          1    LIG   0.0000
  17 C17         -4.6937     0.3431     1.0139 C.ar         1    LIG   0.0000
  18 C18         -5.2839    -0.2775    -0.0840 C.ar         1    LIG   0.0000
  19 C19         -6.6665    -0.3386    -0.2340 C.ar         1    LIG   0.0000
  20 C20         -7.5188     0.2169     0.7167 C.ar         1    LIG   0.0000
  21 C21         -6.9669     0.8367     1.8296 C.ar         1    LIG   0.0000
  22 C22         -5.5800     0.8688     1.9268 C.ar         1    LIG   0.0000
  23 N23         -4.8569     1.4199     2.9292 N.pl3        1    LIG   0.0000
  24 C24         -5.3877     2.0894     4.1284 C.3          1    LIG   0.0000
  25 C25         -3.5525     1.2469     2.6191 C.2          1    LIG   0.0000
  26 S26         -2.1088     1.6886     3.3979 S.3          1    LIG   0.0000
  27 C27          3.0961     2.2045     1.0047 C.ar         1    LIG   0.0000
  28 O28          2.4209     3.3740     1.0093 O.3          1    LIG   0.0000
  29 H            6.5325     5.5486     2.9558 H            1    LIG   0.0000
  30 H            7.1719     5.0343     1.5439 H            1    LIG   0.0000
  31 H            5.7780     5.8849     1.5472 H            1    LIG   0.0000
  32 H            6.1826     1.0002     1.0006 H            1    LIG   0.0000
  33 H            4.9869    -1.0707     0.9903 H            1    LIG   0.0000
  34 H            2.9860    -2.2812     0.9852 H            1    LIG   0.0000
  35 H            1.7611    -1.5779     1.8047 H            1    LIG   0.0000
  36 H            1.7614    -1.5704     0.1717 H            1    LIG   0.0000
  37 H            0.5000     1.0034     0.1340 H            1    LIG   0.0000
  38 H           -1.5990    -0.0142     0.4352 H            1    LIG   0.0000
  39 H           -4.6994    -0.6899    -0.7828 H            1    LIG   0.0000
  40 H           -7.0542    -0.7891    -1.0382 H            1    LIG   0.0000
  41 H           -8.5108     0.1702     0.5999 H            1    LIG   0.0000
  42 H           -7.5455     1.2451     2.5356 H            1    LIG   0.0000
  43 H           -4.6284     2.4010     4.6997 H            1    LIG   0.0000
  44 H           -5.9423     2.8748     3.8537 H            1    LIG   0.0000
  45 H           -5.9527     1.4470     4.6462 H            1    LIG   0.0000
  46 H            2.9209     4.2400     1.0126 H            1    LIG   0.0000
@<TRIPOS>BOND
   1        1        2 1
   2        2        3 1
   3        3        4 2
   4        3        5 1
   5        5        6 ar
   6        6        7 ar
   7        7        8 ar
   8        8        9 1
   9        8       10 ar
  10       10       11 1
  11       11       12 am
  12       12       13 2
  13       12       14 1
  14       14       15 2
  15       15       16 1
  16       16       17 1
  17       17       18 ar
  18       18       19 ar
  19       19       20 ar
  20       20       21 ar
  21       21       22 ar
  22       22       17 ar
  23       22       23 1
  24       23       24 1
  25       23       25 1
  26       25       16 2
  27       25       26 1
  28       26       14 1
  29       10       27 ar
  30       27        5 ar
  31       27       28 1
  32        1       29 1
  33        1       30 1
  34        1       31 1
  35        6       32 1
  36        7       33 1
  37        9       34 1
  38        9       35 1
  39        9       36 1
  40       11       37 1
  41       15       38 1
  42       18       39 1
  43       19       40 1
  44       20       41 1
  45       21       42 1
  46       24       43 1
  47       24       44 1
  48       24       45 1
  49       28       46 1

@<TRIPOS>MOLECULE

  46   49
SMALL
USER_CHARGES
@<TRIPOS>ATOM
   1 C1           6.3210     5.2055     2.0406 C.3          1    LIG   0.0000
   2 O2           5.5836     3.9967     2.1469 O.3          1    LIG   0.0000
   3 C3           5.2426     3.4422     1.0101 C.2          1    LIG   0.0000
   4 O4           5.5553     3.9586    -0.0270 O.2          1    LIG   0.0000
   5 C5           4.4872     2.2043     1.0049 C.ar         1    LIG   0.0000
   6 C6           5.1826     1.0001     1.0001 C.ar         1    LIG   0.0000
   7 C7           4.4869    -0.2047     0.9945 C.ar         1    LIG   0.0000
   8 C8           3.0962    -0.2047     0.9946 C.ar         1    LIG   0.0000
   9 C9           2.3361    -1.5212     0.9885 C.3          1    LIG   0.0000
  10 C10          2.4006     1.0000     1.0000 C.ar         1    LIG   0.0000
  11 N11          1.0000     1.0000     1.0000 N.am         1    LIG   0.0000
  12 C12          0.3150     0.9954     2.1864 C.2          1    LIG   0.0000
  13 O13          0.7944     1.5113     3.1581 O.2          1    LIG   0.0000
  14 C14         -0.9867     0.3684     2.2680 C.2          1    LIG   0.0000
  15 C15         -1.6660    -0.2597     1.2622 C.2          1    LIG   0.0000
  16 C16         -2.9451    -0.7997     1.5949 C.2          1    LIG   0.0000
  17 C17         -4.1196    -1.4909     1.1666 C.ar         1    LIG   0.0000
  18 C18         -4.5802    -2.0514    -0.0219 C.ar         1    LIG   0.0000
  19 C19         -5.8238    -2.6713    -0.1046 C.ar         1    LIG   0.0000
  20 C20         -6.6587    -2.7608     1.0061 C.ar         1    LIG   0.0000
  21 C21         -6.2297    -2.2208     2.2110 C.ar         1    LIG   0.0000
  22 C22         -4.9792    -1.6130     2.2350 C.ar         1    LIG   0.0000
  23 N23         -4.3867    -1.0350     3.3055 N.pl3        1    LIG   0.0000
  24 C24         -4.9375    -0.9393     4.6677 C.3          1    LIG   0.0000
  25 C25         -3.1944    -0.5540     2.8876 C.2          1    LIG   0.0000
  26 S26         -1.9462     0.2890     3.6733 S.3          1    LIG   0.0000
  27 C27          3.0961     2.2045     1.0047 C.ar         1    LIG   0.0000
  28 O28          2.4209     3.3740     1.0093 O.3          1    LIG   0.0000
  29 H            6.5325     5.5486     2.9558 H            1    LIG   0.0000
  30 H            7.1719     5.0343     1.5439 H            1    LIG   0.0000
  31 H            5.7780     5.8849     1.5472 H            1    LIG   0.0000
  32 H            6.1826     1.0002     1.0006 H            1    LIG   0.0000
  33 H            4.9869    -1.0707     0.9903 H            1    LIG   0.0000
  34 H            2.9860    -2.2812     0.9852 H            1    LIG   0.0000
  35 H            1.7611    -1.5779     1.8047 H            1    LIG   0.0000
  36 H            1.7614    -1.5704     0.1717 H            1    LIG   0.0000
  37 H            0.5000     1.0034     0.1340 H            1    LIG   0.0000
  38 H           -1.2866    -0.3372     0.3402 H            1    LIG   0.0000
  39 H           -4.0026    -2.0075    -0.8371 H            1    LIG   0.0000
  40 H           -6.1227    -3.0590    -0.9766 H            1    LIG   0.0000
  41 H           -7.5514    -3.2061     0.9372 H            1    LIG   0.0000
  42 H           -6.7992    -2.2673     3.0317 H            1    LIG   0.0000
  43 H           -4.2865    -0.4617     5.2577 H            1    LIG   0.0000
  44 H           -5.7995    -0.4329     4.6439 H            1    LIG   0.0000
  45 H           -5.1005    -1.8583     5.0267 H            1    LIG   0.0000
  46 H            2.9209     4.2400     1.0126 H            1    LIG   0.0000
@<TRIPOS>BOND
   1        1        2 1
   2        2        3 1
   3        3        4 2
   4        3        5 1
   5        5        6 ar
   6        6        7 ar
   7        7        8 ar
   8        8        9 1
   9        8       10 ar
  10       10       11 1
  11       11       12 am
  12       12       13 2
  13       12       14 1
  14       14       15 2
  15       15       16 1
  16       16       17 1
  17       17       18 ar
  18       18       19 ar
  19       19       20 ar
  20       20       21 ar
  21       21       22 ar
  22       22       17 ar
  23       22       23 1
  24       23       24 1
  25       23       25 1
  26       25       16 2
  27       25       26 1
  28       26       14 1
  29       10       27 ar
  30       27        5 ar
  31       27       28 1
  32        1       29 1
  33        1       30 1
  34        1       31 1
  35        6       32 1
  36        7       33 1
  37        9       34 1
  38        9       35 1
  39        9       36 1
  40       11       37 1
  41       15       38 1
  42       18       39 1
  43       19       40 1
  44       20       41 1
  45       21       42 1
  46       24       43 1
  47       24       44 1
  48       24       45 1
  49       28       46 1

@<TRIPOS>MOLECULE

  46   49
SMALL
USER_CHARGES
@<TRIPOS>ATOM
   1 C1           6.3210     5.2055     2.0406 C.3          1    LIG   0.0000
   2 O2           5.5836     3.9967     2.1469 O.3          1    LIG   0.0000
   3 C3           5.2426     3.4422     1.0101 C.2          1    LIG   0.0000
   4 O4           5.5553     3.9586    -0.0270 O.2          1    LIG   0.0000
   5 C5           4.4872     2.2043     1.0049 C.ar         1    LIG   0.0000
   6 C6           5.1826     1.0001     1.0001 C.ar         1    LIG   0.0000
   7 C7           4.4869    -0.2047     0.9945 C.ar         1    LIG   0.0000
   8 C8           3.0962    -0.2047     0.9946 C.ar         1    LIG   0.0000
   9 C9           2.3361    -1.5212     0.9885 C.3          1    LIG   0.0000
  10 C10          2.4006     1.0000     1.0000 C.ar         1    LIG   0.0000
  11 N11          1.0000     1.0000     1.0000 N.am         1    LIG   0.0000
  12 C12          0.3150     0.9954     2.1864 C.2          1    LIG   0.0000
  13 O13          0.7944     0.4720     3.1540 O.2          1    LIG   0.0000
  14 C14         -0.9867     1.6217     2.2728 C.2          1    LIG   0.0000
  15 C15         -1.6681     2.2535     1.2707 C.2          1    LIG   0.0000
  16 C16         -2.9440     2.7972     1.6095 C.2          1    LIG   0.0000
  17 C17         -4.1055     3.5175     1.1941 C.ar         1    LIG   0.0000
  18 C18         -4.5604     4.0987     0.0133 C.ar         1    LIG   0.0000
  19 C19         -5.7855     4.7563    -0.0537 C.ar         1    LIG   0.0000
  20 C20         -6.6117     4.8544     1.0627 C.ar         1    LIG   0.0000
  21 C21         -6.1956     4.2796     2.2559 C.ar         1    LIG   0.0000
  22 C22         -4.9627     3.6363     2.2648 C.ar         1    LIG   0.0000
  23 N23         -4.3871     3.0163     3.3210 N.pl3        1    LIG   0.0000
  24 C24         -4.9504     2.8849     4.6751 C.3          1    LIG   0.0000
  25 C25         -3.1915     2.5452     2.9013 C.2          1    LIG   0.0000
  26 S26         -1.9462     1.6902     3.6788 S.3          1    LIG   0.0000
  27 C27          3.0961     2.2045     1.0047 C.ar         1    LIG   0.0000
  28 O28          2.4209     3.3740     1.0093 O.3          1    LIG   0.0000
  29 H            6.5325     5.5486     2.9558 H            1    LIG   0.0000
  30 H            7.1719     5.0343     1.5439 H            1    LIG   0.0000
  31 H            5.7780     5.8849     1.5472 H            1    LIG   0.0000
  32 H            6.1826     1.0002     1.0006 H            1    LIG   0.0000
  33 H            4.9869    -1.0707     0.9903 H            1    LIG   0.0000
  34 H            2.9860    -2.2812     0.9852 H            1    LIG   0.0000
  35 H            1.7611    -1.5779     1.8047 H            1    LIG   0.0000
  36 H            1.7614    -1.5704     0.1717 H            1    LIG   0.0000
  37 H            0.5000     1.0034     0.1340 H            1    LIG   0.0000
  38 H           -1.2922     2.3310     0.3473 H            1    LIG   0.0000
  39 H           -3.9923     4.0422    -0.8077 H            1    LIG   0.0000
  40 H           -6.0772     5.1653    -0.9184 H            1    LIG   0.0000
  41 H           -7.4893     5.3305     1.0061 H            1    LIG   0.0000
  42 H           -6.7617     4.3264     3.0789 H            1    LIG   0.0000
  43 H           -4.3110     2.3797     5.2546 H            1    LIG   0.0000
  44 H           -5.1039     3.7942     5.0619 H            1    LIG   0.0000
  45 H           -5.8190     2.3916     4.6283 H            1    LIG   0.0000
  46 H            2.9209     4.2400     1.0126 H            1    LIG   0.0000
@<TRIPOS>BOND
   1        1        2 1
   2        2        3 1
   3        3        4 2
   4        3        5 1
   5        5        6 ar
   6        6        7 ar
   7        7        8 ar
   8        8        9 1
   9        8       10 ar
  10       10       11 1
  11       11       12 am
  12       12       13 2
  13       12       14 1
  14       14       15 2
  15       15       16 1
  16       16       17 1
  17       17       18 ar
  18       18       19 ar
  19       19       20 ar
  20       20       21 ar
  21       21       22 ar
  22       22       17 ar
  23       22       23 1
  24       23       24 1
  25       23       25 1
  26       25       16 2
  27       25       26 1
  28       26       14 1
  29       10       27 ar
  30       27        5 ar
  31       27       28 1
  32        1       29 1
  33        1       30 1
  34        1       31 1
  35        6       32 1
  36        7       33 1
  37        9       34 1
  38        9       35 1
  39        9       36 1
  40       11       37 1
  41       15       38 1
  42       18       39 1
  43       19       40 1
  44       20       41 1
  45       21       42 1
  46       24       43 1
  47       24       44 1
  48       24       45 1
  49       28       46 1

@<TRIPOS>MOLECULE

  46   49
SMALL
USER_CHARGES
@<TRIPOS>ATOM
   1 C1           6.3210     5.2055     2.0406 C.3          1    LIG   0.0000
   2 O2           5.5836     3.9967     2.1469 O.3          1    LIG   0.0000
   3 C3           5.2426     3.4422     1.0101 C.2          1    LIG   0.0000
   4 O4           5.5553     3.9586    -0.0270 O.2          1    LIG   0.0000
   5 C5           4.4872     2.2043     1.0049 C.ar         1    LIG   0.0000
   6 C6           5.1826     1.0001     1.0001 C.ar         1    LIG   0.0000
   7 C7           4.4869    -0.2047     0.9945 C.ar         1    LIG   0.0000
   8 C8           3.0962    -0.2047     0.9946 C.ar         1    LIG   0.0000
   9 C9           2.3361    -1.5212     0.9885 C.3          1    LIG   0.0000
  10 C10          2.4006     1.0000     1.0000 C.ar         1    LIG   0.0000
  11 N11          1.0000     1.0000     1.0000 N.am         1    LIG   0.0000
  12 C12          0.3150     0.9954     2.1864 C.2          1    LIG   0.0000
  13 O13          0.7944     0.4720     3.1540 O.2          1    LIG   0.0000
  14 C14         -0.9867     1.6217     2.2728 C.2          1    LIG   0.0000
  15 C15         -1.9121     1.7457     1.2749 C.2          1    LIG   0.0000
  16 C16         -3.1291     2.4122     1.6111 C.2          1    LIG   0.0000
  17 C17         -4.4069     2.8918     1.1893 C.ar         1    LIG   0.0000
  18 C18         -5.1448     2.8847     0.0085 C.ar         1    LIG   0.0000
  19 C19         -6.4066     3.4677    -0.0692 C.ar         1    LIG   0.0000
  20 C20         -6.9861     4.0795     1.0392 C.ar         1    LIG   0.0000
  21 C21         -6.2839     4.0987     2.2366 C.ar         1    LIG   0.0000
  22 C22         -5.0279     3.5020     2.2558 C.ar         1    LIG   0.0000
  23 N23         -4.1952     3.4154     3.3189 N.pl3        1    LIG   0.0000
  24 C24         -4.4501     3.9246     4.6768 C.3          1    LIG   0.0000
  25 C25         -3.0793     2.7786     2.8982 C.2          1    LIG   0.0000
  26 S26         -1.6332     2.3413     3.6750 S.3          1    LIG   0.0000
  27 C27          3.0961     2.2045     1.0047 C.ar         1    LIG   0.0000
  28 O28          2.4209     3.3740     1.0093 O.3          1    LIG   0.0000
  29 H            6.5325     5.5486     2.9558 H            1    LIG   0.0000
  30 H            7.1719     5.0343     1.5439 H            1    LIG   0.0000
  31 H            5.7780     5.8849     1.5472 H            1    LIG   0.0000
  32 H            6.1826     1.0002     1.0006 H            1    LIG   0.0000
  33 H            4.9869    -1.0707     0.9903 H            1    LIG   0.0000
  34 H            2.9860    -2.2812     0.9852 H            1    LIG   0.0000
  35 H            1.7611    -1.5779     1.8047 H            1    LIG   0.0000
  36 H            1.7614    -1.5704     0.1717 H            1    LIG   0.0000
  37 H            0.5000     1.0034     0.1340 H            1    LIG   0.0000
  38 H           -1.7454     1.3879     0.3561 H            1    LIG   0.0000
  39 H           -4.7584     2.4495    -0.8047 H            1    LIG   0.0000
  40 H           -6.9052     3.4467    -0.9357 H            1    LIG   0.0000
  41 H           -7.8921     4.4977     0.9739 H            1    LIG   0.0000
  42 H           -6.6671     4.5261     3.0554 H            1    LIG   0.0000
  43 H           -3.6643     3.7228     5.2615 H            1    LIG   0.0000
  44 H           -4.5933     4.9136     4.6405 H            1    LIG   0.0000
  45 H           -5.2658     3.4832     5.0507 H            1    LIG   0.0000
  46 H            2.9209     4.2400     1.0126 H            1    LIG   0.0000
@<TRIPOS>BOND
   1        1        2 1
   2        2        3 1
   3        3        4 2
   4        3        5 1
   5        5        6 ar
   6        6        7 ar
   7        7        8 ar
   8        8        9 1
   9        8       10 ar
  10       10       11 1
  11       11       12 am
  12       12       13 2
  13       12       14 1
  14       14       15 2
  15       15       16 1
  16       16       17 1
  17       17       18 ar
  18       18       19 ar
  19       19       20 ar
  20       20       21 ar
  21       21       22 ar
  22       22       17 ar
  23       22       23 1
  24       23       24 1
  25       23       25 1
  26       25       16 2
  27       25       26 1
  28       26       14 1
  29       10       27 ar
  30       27        5 ar
  31       27       28 1
  32        1       29 1
  33        1       30 1
  34        1       31 1
  35        6       32 1
  36        7       33 1
  37        9       34 1
  38        9       35 1
  39        9       36 1
  40       11       37 1
  41       15       38 1
  42       18       39 1
  43       19       40 1
  44       20       41 1
  45       21       42 1
  46       24       43 1
  47       24       44 1
  48       24       45 1
  49       28       46 1

@<TRIPOS>MOLECULE

  46   49
SMALL
USER_CHARGES
@<TRIPOS>ATOM
   1 C1           6.3210     5.2055     2.0406 C.3          1    LIG   0.0000
   2 O2           5.5836     3.9967     2.1469 O.3          1    LIG   0.0000
   3 C3           5.2426     3.4422     1.0101 C.2          1    LIG   0.0000
   4 O4           5.5553     3.9586    -0.0270 O.2          1    LIG   0.0000
   5 C5           4.4872     2.2043     1.0049 C.ar         1    LIG   0.0000
   6 C6           5.1826     1.0001     1.0001 C.ar         1    LIG   0.0000
   7 C7           4.4869    -0.2047     0.9945 C.ar         1    LIG   0.0000
   8 C8           3.0962    -0.2047     0.9946 C.ar         1    LIG   0.0000
   9 C9           2.3361    -1.5212     0.9885 C.3          1    LIG   0.0000
  10 C10          2.4006     1.0000     1.0000 C.ar         1    LIG   0.0000
  11 N11          1.0000     1.0000     1.0000 N.am         1    LIG   0.0000
  12 C12          0.3150     0.9954     2.1864 C.2          1    LIG   0.0000
  13 O13          0.7944     0.4720     3.1540 O.2          1    LIG   0.0000
  14 C14         -0.9867     1.6217     2.2728 C.2          1    LIG   0.0000
  15 C15         -1.4407     2.6878     1.5483 C.2          1    LIG   0.0000
  16 C16         -2.7719     3.1257     1.8213 C.2          1    LIG   0.0000
  17 C17         -3.8269     4.0483     1.5449 C.ar         1    LIG   0.0000
  18 C18         -4.0191     5.1304     0.6900 C.ar         1    LIG   0.0000
  19 C19         -5.2126     5.8469     0.6737 C.ar         1    LIG   0.0000
  20 C20         -6.2695     5.5038     1.5127 C.ar         1    LIG   0.0000
  21 C21         -6.1179     4.4249     2.3731 C.ar         1    LIG   0.0000
  22 C22         -4.9042     3.7465     2.3472 C.ar         1    LIG   0.0000
  23 N23         -4.5656     2.6755     3.1018 N.pl3        1    LIG   0.0000
  24 C24         -5.4144     2.0003     4.0977 C.3          1    LIG   0.0000
  25 C25         -3.2962     2.3449     2.7747 C.2          1    LIG   0.0000
  26 S26         -2.2375     1.1340     3.3214 S.3          1    LIG   0.0000
  27 C27          3.0961     2.2045     1.0047 C.ar         1    LIG   0.0000
  28 O28          2.4209     3.3740     1.0093 O.3          1    LIG   0.0000
  29 H            6.5325     5.5486     2.9558 H            1    LIG   0.0000
  30 H            7.1719     5.0343     1.5439 H            1    LIG   0.0000
  31 H            5.7780     5.8849     1.5472 H            1    LIG   0.0000
  32 H            6.1826     1.0002     1.0006 H            1    LIG   0.0000
  33 H            4.9869    -1.0707     0.9903 H            1    LIG   0.0000
  34 H            2.9860    -2.2812     0.9852 H            1    LIG   0.0000
  35 H            1.7611    -1.5779     1.8047 H            1    LIG   0.0000
  36 H            1.7614    -1.5704     0.1717 H            1    LIG   0.0000
  37 H            0.5000     1.0034     0.1340 H            1    LIG   0.0000
  38 H           -0.8697     3.1382     0.8619 H            1    LIG   0.0000
  39 H           -3.2807     5.3999     0.0718 H            1    LIG   0.0000
  40 H           -5.3125     6.6211     0.0487 H            1    LIG   0.0000
  41 H           -7.1226     6.0253     1.4958 H            1    LIG   0.0000
  42 H           -6.8546     4.1457     2.9890 H            1    LIG   0.0000
  43 H           -4.9095     1.2390     4.5047 H            1    LIG   0.0000
  44 H           -5.6707     2.6505     4.8129 H            1    LIG   0.0000
  45 H           -6.2393     1.6528     3.6519 H            1    LIG   0.0000
  46 H            2.9209     4.2400     1.0126 H            1    LIG   0.0000
@<TRIPOS>BOND
   1        1        2 1
   2        2        3 1
   3        3        4 2
   4        3        5 1
   5        5        6 ar
   6        6        7 ar
   7        7        8 ar
   8        8        9 1
   9        8       10 ar
  10       10       11 1
  11       11       12 am
  12       12       13 2
  13       12       14 1
  14       14       15 2
  15       15       16 1
  16       16       17 1
  17       17       18 ar
  18       18       19 ar
  19       19       20 ar
  20       20       21 ar
  21       21       22 ar
  22       22       17 ar
  23       22       23 1
  24       23       24 1
  25       23       25 1
  26       25       16 2
  27       25       26 1
  28       26       14 1
  29       10       27 ar
  30       27        5 ar
  31       27       28 1
  32        1       29 1
  33        1       30 1
  34        1       31 1
  35        6       32 1
  36        7       33 1
  37        9       34 1
  38        9       35 1
  39        9       36 1
  40       11       37 1
  41       15       38 1
  42       18       39 1
  43       19       40 1
  44       20       41 1
  45       21       42 1
  46       24       43 1
  47       24       44 1
  48       24       45 1
  49       28       46 1

@<TRIPOS>MOLECULE

  46   49
SMALL
USER_CHARGES
@<TRIPOS>ATOM
   1 C1           5.9120     5.3765     2.0799 C.3          1    LIG   0.0000
   2 O2           5.5836     3.9967     2.1469 O.3          1    LIG   0.0000
   3 C3           5.2426     3.4422     1.0101 C.2          1    LIG   0.0000
   4 O4           5.5553     3.9586    -0.0270 O.2          1    LIG   0.0000
   5 C5           4.4872     2.2043     1.0049 C.ar         1    LIG   0.0000
   6 C6           5.1826     1.0001     1.0001 C.ar         1    LIG   0.0000
   7 C7           4.4869    -0.2047     0.9945 C.ar         1    LIG   0.0000
   8 C8           3.0962    -0.2047     0.9946 C.ar         1    LIG   0.0000
   9 C9           2.3361    -1.5212     0.9885 C.3          1    LIG   0.0000
  10 C10          2.4006     1.0000     1.0000 C.ar         1    LIG   0.0000
  11 N11          1.0000     1.0000     1.0000 N.am         1    LIG   0.0000
  12 C12          0.3150     0.9954     2.1864 C.2          1    LIG   0.0000
  13 O13          0.9150     0.9914     3.2257 O.2          1    LIG   0.0000
  14 C14         -1.1322     0.9954     2.1864 C.2          1    LIG   0.0000
  15 C15         -1.9587     1.5411     1.2448 C.2          1    LIG   0.0000
  16 C16         -3.3619     1.4118     1.4740 C.2          1    LIG   0.0000
  17 C17         -4.6937     1.6847     1.0353 C.ar         1    LIG   0.0000
  18 C18         -5.2839     2.3252    -0.0511 C.ar         1    LIG   0.0000
  19 C19         -6.6665     2.4246    -0.1790 C.ar         1    LIG   0.0000
  20 C20         -7.5188     1.8790     0.7773 C.ar         1    LIG   0.0000
  21 C21         -6.9669     1.2251     1.8705 C.ar         1    LIG   0.0000
  22 C22         -5.5800     1.1569     1.9470 C.ar         1    LIG   0.0000
  23 N23         -4.8569     0.5644     2.9254 N.pl3        1    LIG   0.0000
  24 C24         -5.3877    -0.1394     4.1048 C.3          1    LIG   0.0000
  25 C25         -3.5525     0.7465     2.6205 C.2          1    LIG   0.0000
  26 S26         -2.1088     0.2928     3.3925 S.3          1    LIG   0.0000
  27 C27          3.0961     2.2045     1.0047 C.ar         1    LIG   0.0000
  28 O28          2.4209     3.3740     1.0093 O.3          1    LIG   0.0000
  29 H            6.1569     5.7056     2.9918 H            1    LIG   0.0000
  30 H            6.6860     5.5052     1.4600 H            1    LIG   0.0000
  31 H            5.1241     5.8905     1.7405 H            1    LIG   0.0000
  32 H            6.1826     1.0002     1.0006 H            1    LIG   0.0000
  33 H            4.9869    -1.0707     0.9903 H            1    LIG   0.0000
  34 H            2.9860    -2.2812     0.9852 H            1    LIG   0.0000
  35 H            1.7611    -1.5779     1.8047 H            1    LIG   0.0000
  36 H            1.7614    -1.5704     0.1717 H            1    LIG   0.0000
  37 H            0.5000     1.0034     0.1340 H            1    LIG   0.0000
  38 H           -1.5990     2.0072     0.4365 H            1    LIG   0.0000
  39 H           -4.6994     2.7242    -0.7577 H            1    LIG   0.0000
  40 H           -7.0542     2.8958    -0.9713 H            1    LIG   0.0000
  41 H           -8.5108     1.9568     0.6785 H            1    LIG   0.0000
  42 H           -7.5455     0.8179     2.5772 H            1    LIG   0.0000
  43 H           -4.6284    -0.4784     4.6603 H            1    LIG   0.0000
  44 H           -5.9423     0.4912     4.6477 H            1    LIG   0.0000
  45 H           -5.9527    -0.9090     3.8074 H            1    LIG   0.0000
  46 H            2.9209     4.2400     1.0126 H            1    LIG   0.0000
@<TRIPOS>BOND
   1        1        2 1
   2        2        3 1
   3        3        4 2
   4        3        5 1
   5        5        6 ar
   6        6        7 ar
   7        7        8 ar
   8        8        9 1
   9        8       10 ar
  10       10       11 1
  11       11       12 am
  12       12       13 2
  13       12       14 1
  14       14       15 2
  15       15       16 1
  16       16       17 1
  17       17       18 ar
  18       18       19 ar
  19       19       20 ar
  20       20       21 ar
  21       21       22 ar
  22       22       17 ar
  23       22       23 1
  24       23       24 1
  25       23       25 1
  26       25       16 2
  27       25       26 1
  28       26       14 1
  29       10       27 ar
  30       27        5 ar
  31       27       28 1
  32        1       29 1
  33        1       30 1
  34        1       31 1
  35        6       32 1
  36        7       33 1
  37        9       34 1
  38        9       35 1
  39        9       36 1
  40       11       37 1
  41       15       38 1
  42       18       39 1
  43       19       40 1
  44       20       41 1
  45       21       42 1
  46       24       43 1
  47       24       44 1
  48       24       45 1
  49       28       46 1

@<TRIPOS>MOLECULE

  46   49
SMALL
USER_CHARGES
@<TRIPOS>ATOM
   1 C1           5.9120     5.3765     2.0799 C.3          1    LIG   0.0000
   2 O2           5.5836     3.9967     2.1469 O.3          1    LIG   0.0000
   3 C3           5.2426     3.4422     1.0101 C.2          1    LIG   0.0000
   4 O4           5.5553     3.9586    -0.0270 O.2          1    LIG   0.0000
   5 C5           4.4872     2.2043     1.0049 C.ar         1    LIG   0.0000
   6 C6           5.1826     1.0001     1.0001 C.ar         1    LIG   0.0000
   7 C7           4.4869    -0.2047     0.9945 C.ar         1    LIG   0.0000
   8 C8           3.0962    -0.2047     0.9946 C.ar         1    LIG   0.0000
   9 C9           2.3361    -1.5212     0.9885 C.3          1    LIG   0.0000
  10 C10          2.4006     1.0000     1.0000 C.ar         1    LIG   0.0000
  11 N11          1.0000     1.0000     1.0000 N.am         1    LIG   0.0000
  12 C12          0.3150     0.9954     2.1864 C.2          1    LIG   0.0000
  13 O13          0.7944     1.5113     3.1581 O.2          1    LIG   0.0000
  14 C14         -0.9867     0.3684     2.2680 C.2          1    LIG   0.0000
  15 C15         -1.9102     0.2480     1.2678 C.2          1    LIG   0.0000
  16 C16         -3.1301    -0.4147     1.6008 C.2          1    LIG   0.0000
  17 C17         -4.4200    -0.8649     1.1834 C.ar         1    LIG   0.0000
  18 C18         -5.1632    -0.8371     0.0063 C.ar         1    LIG   0.0000
  19 C19         -6.4423    -1.3820    -0.0644 C.ar         1    LIG   0.0000
  20 C20         -7.0299    -1.9850     1.0446 C.ar         1    LIG   0.0000
  21 C21         -6.3157    -2.0393     2.2338 C.ar         1    LIG   0.0000
  22 C22         -5.0433    -1.4784     2.2466 C.ar         1    LIG   0.0000
  23 N23         -4.1949    -1.4341     3.2999 N.pl3        1    LIG   0.0000
  24 C24         -4.4380    -1.9791     4.6460 C.3          1    LIG   0.0000
  25 C25         -3.0821    -0.7874     2.8862 C.2          1    LIG   0.0000
  26 S26         -1.6332    -0.3620     3.6645 S.3          1    LIG   0.0000
  27 C27          3.0961     2.2045     1.0047 C.ar         1    LIG   0.0000
  28 O28          2.4209     3.3740     1.0093 O.3          1    LIG   0.0000
  29 H            6.1569     5.7056     2.9918 H            1    LIG   0.0000
  30 H            6.6860     5.5052     1.4600 H            1    LIG   0.0000
  31 H            5.1241     5.8905     1.7405 H            1    LIG   0.0000
  32 H            6.1826     1.0002     1.0006 H            1    LIG   0.0000
  33 H            4.9869    -1.0707     0.9903 H            1    LIG   0.0000
  34 H            2.9860    -2.2812     0.9852 H            1    LIG   0.0000
  35 H            1.7611    -1.5779     1.8047 H            1    LIG   0.0000
  36 H            1.7614    -1.5704     0.1717 H            1    LIG   0.0000
  37 H            0.5000     1.0034     0.1340 H            1    LIG   0.0000
  38 H           -1.7401     0.6057     0.3496 H            1    LIG   0.0000
  39 H           -4.7680    -0.4147    -0.8095 H            1    LIG   0.0000
  40 H           -6.9477    -1.3396    -0.9262 H            1    LIG   0.0000
  41 H           -7.9501    -2.3721     0.9855 H            1    LIG   0.0000
  42 H           -6.7022    -2.4662     3.0514 H            1    LIG   0.0000
  43 H           -3.6415    -1.8051     5.2250 H            1    LIG   0.0000
  44 H           -5.2423    -1.5378     5.0440 H            1    LIG   0.0000
  45 H           -4.5955    -2.9647     4.5831 H            1    LIG   0.0000
  46 H            2.9209     4.2400     1.0126 H            1    LIG   0.0000
@<TRIPOS>BOND
   1        1        2 1
   2        2        3 1
   3        3        4 2
   4        3        5 1
   5        5        6 ar
   6        6        7 ar
   7        7        8 ar
   8        8        9 1
   9        8       10 ar
  10       10       11 1
  11       11       12 am
  12       12       13 2
  13       12       14 1
  14       14       15 2
  15       15       16 1
  16       16       17 1
  17       17       18 ar
  18       18       19 ar
  19       19       20 ar
  20       20       21 ar
  21       21       22 ar
  22       22       17 ar
  23       22       23 1
  24       23       24 1
  25       23       25 1
  26       25       16 2
  27       25       26 1
  28       26       14 1
  29       10       27 ar
  30       27        5 ar
  31       27       28 1
  32        1       29 1
  33        1       30 1
  34        1       31 1
  35        6       32 1
  36        7       33 1
  37        9       34 1
  38        9       35 1
  39        9       36 1
  40       11       37 1
  41       15       38 1
  42       18       39 1
  43       19       40 1
  44       20       41 1
  45       21       42 1
  46       24       43 1
  47       24       44 1
  48       24       45 1
  49       28       46 1

@<TRIPOS>MOLECULE

  46   49
SMALL
USER_CHARGES
@<TRIPOS>ATOM
   1 C1           6.6603     4.9199     2.0781 C.3          1    LIG   0.0000
   2 O2           5.5836     3.9967     2.1469 O.3          1    LIG   0.0000
   3 C3           5.2426     3.4422     1.0101 C.2          1    LIG   0.0000
   4 O4           5.5553     3.9586    -0.0270 O.2          1    LIG   0.0000
   5 C5           4.4872     2.2043     1.0049 C.ar         1    LIG   0.0000
   6 C6           5.1826     1.0001     1.0001 C.ar         1    LIG   0.0000
   7 C7           4.4869    -0.2047     0.9945 C.ar         1    LIG   0.0000
   8 C8           3.0962    -0.2047     0.9946 C.ar         1    LIG   0.0000
   9 C9           2.3361    -1.5212     0.9885 C.3          1    LIG   0.0000
  10 C10          2.4006     1.0000     1.0000 C.ar         1    LIG   0.0000
  11 N11          1.0000     1.0000     1.0000 N.am         1    LIG   0.0000
  12 C12          0.3150     0.9954     2.1864 C.2          1    LIG   0.0000
  13 O13          0.7944     1.5113     3.1581 O.2          1    LIG   0.0000
  14 C14         -0.9867     0.3684     2.2680 C.2          1    LIG   0.0000
  15 C15         -1.4391    -0.6950     1.5386 C.2          1    LIG   0.0000
  16 C16         -2.7728    -1.1305     1.8031 C.2          1    LIG   0.0000
  17 C17         -3.8381    -2.0321     1.4986 C.ar         1    LIG   0.0000
  18 C18         -4.0349    -3.0993     0.6262 C.ar         1    LIG   0.0000
  19 C19         -5.2432    -3.7887     0.5744 C.ar         1    LIG   0.0000
  20 C20         -6.3070    -3.4396     1.4022 C.ar         1    LIG   0.0000
  21 C21         -6.1452    -2.3859     2.2915 C.ar         1    LIG   0.0000
  22 C22         -4.9174    -1.7330     2.2993 C.ar         1    LIG   0.0000
  23 N23         -4.5653    -0.6923     3.0894 N.pl3        1    LIG   0.0000
  24 C24         -5.4040    -0.0431     4.1107 C.3          1    LIG   0.0000
  25 C25         -3.2986    -0.3544     2.7595 C.2          1    LIG   0.0000
  26 S26         -2.2375     0.8480     3.3203 S.3          1    LIG   0.0000
  27 C27          3.0961     2.2045     1.0047 C.ar         1    LIG   0.0000
  28 O28          2.4209     3.3740     1.0093 O.3          1    LIG   0.0000
  29 H            6.8440     5.2863     2.9902 H            1    LIG   0.0000
  30 H            7.4766     4.4550     1.7351 H            1    LIG   0.0000
  31 H            6.4187     5.6684     1.4606 H            1    LIG   0.0000
  32 H            6.1826     1.0002     1.0006 H            1    LIG   0.0000
  33 H            4.9869    -1.0707     0.9903 H            1    LIG   0.0000
  34 H            2.9860    -2.2812     0.9852 H            1    LIG   0.0000
  35 H            1.7611    -1.5779     1.8047 H            1    LIG   0.0000
  36 H            1.7614    -1.5704     0.1717 H            1    LIG   0.0000
  37 H            0.5000     1.0034     0.1340 H            1    LIG   0.0000
  38 H           -0.8652    -1.1452     0.8545 H            1    LIG   0.0000
  39 H           -3.2889    -3.3777     0.0211 H            1    LIG   0.0000
  40 H           -5.3489    -4.5475    -0.0682 H            1    LIG   0.0000
  41 H           -7.1722    -3.9389     1.3568 H            1    LIG   0.0000
  42 H           -6.8846    -2.1066     2.9042 H            1    LIG   0.0000
  43 H           -4.8900     0.6983     4.5421 H            1    LIG   0.0000
  44 H           -6.2265     0.3283     3.6798 H            1    LIG   0.0000
  45 H           -5.6652    -0.7149     4.8038 H            1    LIG   0.0000
  46 H            2.9209     4.2400     1.0126 H            1    LIG   0.0000
@<TRIPOS>BOND
   1        1        2 1
   2        2        3 1
   3        3        4 2
   4        3        5 1
   5        5        6 ar
   6        6        7 ar
   7        7        8 ar
   8        8        9 1
   9        8       10 ar
  10       10       11 1
  11       11       12 am
  12       12       13 2
  13       12       14 1
  14       14       15 2
  15       15       16 1
  16       16       17 1
  17       17       18 ar
  18       18       19 ar
  19       19       20 ar
  20       20       21 ar
  21       21       22 ar
  22       22       17 ar
  23       22       23 1
  24       23       24 1
  25       23       25 1
  26       25       16 2
  27       25       26 1
  28       26       14 1
  29       10       27 ar
  30       27        5 ar
  31       27       28 1
  32        1       29 1
  33        1       30 1
  34        1       31 1
  35        6       32 1
  36        7       33 1
  37        9       34 1
  38        9       35 1
  39        9       36 1
  40       11       37 1
  41       15       38 1
  42       18       39 1
  43       19       40 1
  44       20       41 1
  45       21       42 1
  46       24       43 1
  47       24       44 1
  48       24       45 1
  49       28       46 1

