@<TRIPOS>MOLECULE
*****
 46 49 0 0 0
SMALL
USER_CHARGES

@<TRIPOS>ATOM
      1 C1          6.3214    5.2139   -0.0056 C.3     1  LIG1        0.0000
      2 O2          5.5840    4.0059   -0.1220 O.3     1  LIG1        0.0000
      3 C3          5.2426    3.4422    1.0101 C.2     1  LIG1        0.0000
      4 O4          5.5550    3.9501    2.0515 O.2     1  LIG1        0.0000
      5 C5          4.4872    2.2043    1.0049 C.3     1  LIG1        0.0000
      6 C6          5.1826    1.0001    1.0001 C.3     1  LIG1        0.0000
      7 C7          4.4869   -0.2047    0.9945 C.3     1  LIG1        0.0000
      8 C8          3.0962   -0.2047    0.9946 C.3     1  LIG1        0.0000
      9 C9          2.3361   -1.5212    0.9885 C.3     1  LIG1        0.0000
     10 C10         2.4006    1.0000    1.0000 C.3     1  LIG1        0.0000
     11 N11         1.0000    1.0000    1.0000 N.am    1  LIG1        0.0000
     12 C12         0.3150    0.9954    2.1864 C.2     1  LIG1        0.0000
     13 O13         0.7944    0.4720    3.1540 O.2     1  LIG1        0.0000
     14 C14        -0.9867    1.6217    2.2728 C.2     1  LIG1        0.0000
     15 C15        -1.9121    1.7457    1.2749 C.2     1  LIG1        0.0000
     16 C16        -3.1291    2.4122    1.6111 C.2     1  LIG1        0.0000
     17 C17        -4.4069    2.8918    1.1893 C.3     1  LIG1        0.0000
     18 C18        -5.1448    2.8847    0.0085 C.3     1  LIG1        0.0000
     19 C19        -6.4066    3.4677   -0.0692 C.3     1  LIG1        0.0000
     20 C20        -6.9861    4.0795    1.0392 C.3     1  LIG1        0.0000
     21 C21        -6.2839    4.0987    2.2366 C.3     1  LIG1        0.0000
     22 C22        -5.0279    3.5020    2.2558 C.3     1  LIG1        0.0000
     23 N23        -4.1952    3.4154    3.3189 N.pl3   1  LIG1        0.0000
     24 C24        -4.4501    3.9246    4.6768 C.3     1  LIG1        0.0000
     25 C25        -3.0793    2.7786    2.8982 C.2     1  LIG1        0.0000
     26 S26        -1.6332    2.3413    3.6750 S.3     1  LIG1        0.0000
     27 C27         3.0961    2.2045    1.0047 C.3     1  LIG1        0.0000
     28 O28         2.4209    3.3740    1.0093 O.2     1  LIG1        0.0000
     29 H           6.5332    5.5644   -0.9178 H       1  LIG1        0.0000
     30 H           5.7781    5.8892    0.4932 H       1  LIG1        0.0000
     31 H           7.1721    5.0386    0.4900 H       1  LIG1        0.0000
     32 H           6.1826    1.0002    1.0006 H       1  LIG1        0.0000
     33 H           4.9869   -1.0707    0.9903 H       1  LIG1        0.0000
     34 H           2.9860   -2.2812    0.9852 H       1  LIG1        0.0000
     35 H           1.7611   -1.5779    1.8047 H       1  LIG1        0.0000
     36 H           1.7614   -1.5704    0.1717 H       1  LIG1        0.0000
     37 H           0.5000    1.0034    0.1340 H       1  LIG1        0.0000
     38 H          -1.7454    1.3879    0.3561 H       1  LIG1        0.0000
     39 H          -4.7584    2.4495   -0.8047 H       1  LIG1        0.0000
     40 H          -6.9052    3.4467   -0.9357 H       1  LIG1        0.0000
     41 H          -7.8921    4.4977    0.9739 H       1  LIG1        0.0000
     42 H          -6.6671    4.5261    3.0554 H       1  LIG1        0.0000
     43 H          -3.6643    3.7228    5.2615 H       1  LIG1        0.0000
     44 H          -4.5933    4.9136    4.6405 H       1  LIG1        0.0000
     45 H          -5.2658    3.4832    5.0507 H       1  LIG1        0.0000
     46 H           2.9209    4.2400    1.0126 H       1  LIG1        0.0000
@<TRIPOS>BOND
     1     1     2    1
     2     2     3    1
     3     3     4    2
     4     3     5    1
     5     5     6   ar
     6     6     7   ar
     7     7     8   ar
     8     8     9    1
     9     8    10   ar
    10    10    11    1
    11    11    12   am
    12    12    13    2
    13    12    14    1
    14    14    15    2
    15    15    16    1
    16    16    17    1
    17    17    18   ar
    18    18    19   ar
    19    19    20   ar
    20    20    21   ar
    21    21    22   ar
    22    22    17   ar
    23    22    23    1
    24    23    24    1
    25    23    25    1
    26    25    16    2
    27    25    26    1
    28    26    14    1
    29    10    27   ar
    30    27     5   ar
    31    27    28    1
    32     1    29    1
    33     1    30    1
    34     1    31    1
    35     6    32    1
    36     7    33    1
    37     9    34    1
    38     9    35    1
    39     9    36    1
    40    11    37    1
    41    15    38    1
    42    18    39    1
    43    19    40    1
    44    20    41    1
    45    21    42    1
    46    24    43    1
    47    24    44    1
    48    24    45    1
    49    28    46    1
