@<TRIPOS>MOLECULE
*****
 46 49 0 0 0
SMALL
USER_CHARGES

@<TRIPOS>ATOM
      1 C1          5.9120    5.3765    2.0799 C.3     1  LIG1        0.0000
      2 O2          5.5836    3.9967    2.1469 O.3     1  LIG1        0.0000
      3 C3          5.2426    3.4422    1.0101 C.2     1  LIG1        0.0000
      4 O4          5.5553    3.9586   -0.0270 O.2     1  LIG1        0.0000
      5 C5          4.4872    2.2043    1.0049 C.3     1  LIG1        0.0000
      6 C6          5.1826    1.0001    1.0001 C.3     1  LIG1        0.0000
      7 C7          4.4869   -0.2047    0.9945 C.3     1  LIG1        0.0000
      8 C8          3.0962   -0.2047    0.9946 C.3     1  LIG1        0.0000
      9 C9          2.3361   -1.5212    0.9885 C.3     1  LIG1        0.0000
     10 C10         2.4006    1.0000    1.0000 C.3     1  LIG1        0.0000
     11 N11         1.0000    1.0000    1.0000 N.am    1  LIG1        0.0000
     12 C12         0.3150    0.9954    2.1864 C.2     1  LIG1        0.0000
     13 O13         0.7944    1.5113    3.1581 O.2     1  LIG1        0.0000
     14 C14        -0.9867    0.3684    2.2680 C.2     1  LIG1        0.0000
     15 C15        -1.9102    0.2480    1.2678 C.2     1  LIG1        0.0000
     16 C16        -3.1301   -0.4147    1.6008 C.2     1  LIG1        0.0000
     17 C17        -4.4200   -0.8649    1.1834 C.3     1  LIG1        0.0000
     18 C18        -5.1632   -0.8371    0.0063 C.3     1  LIG1        0.0000
     19 C19        -6.4423   -1.3820   -0.0644 C.3     1  LIG1        0.0000
     20 C20        -7.0299   -1.9850    1.0446 C.3     1  LIG1        0.0000
     21 C21        -6.3157   -2.0393    2.2338 C.3     1  LIG1        0.0000
     22 C22        -5.0433   -1.4784    2.2466 C.3     1  LIG1        0.0000
     23 N23        -4.1949   -1.4341    3.2999 N.pl3   1  LIG1        0.0000
     24 C24        -4.4380   -1.9791    4.6460 C.3     1  LIG1        0.0000
     25 C25        -3.0821   -0.7874    2.8862 C.2     1  LIG1        0.0000
     26 S26        -1.6332   -0.3620    3.6645 S.3     1  LIG1        0.0000
     27 C27         3.0961    2.2045    1.0047 C.3     1  LIG1        0.0000
     28 O28         2.4209    3.3740    1.0093 O.2     1  LIG1        0.0000
     29 H           6.1569    5.7056    2.9918 H       1  LIG1        0.0000
     30 H           6.6860    5.5052    1.4600 H       1  LIG1        0.0000
     31 H           5.1241    5.8905    1.7405 H       1  LIG1        0.0000
     32 H           6.1826    1.0002    1.0006 H       1  LIG1        0.0000
     33 H           4.9869   -1.0707    0.9903 H       1  LIG1        0.0000
     34 H           2.9860   -2.2812    0.9852 H       1  LIG1        0.0000
     35 H           1.7611   -1.5779    1.8047 H       1  LIG1        0.0000
     36 H           1.7614   -1.5704    0.1717 H       1  LIG1        0.0000
     37 H           0.5000    1.0034    0.1340 H       1  LIG1        0.0000
     38 H          -1.7401    0.6057    0.3496 H       1  LIG1        0.0000
     39 H          -4.7680   -0.4147   -0.8095 H       1  LIG1        0.0000
     40 H          -6.9477   -1.3396   -0.9262 H       1  LIG1        0.0000
     41 H          -7.9501   -2.3721    0.9855 H       1  LIG1        0.0000
     42 H          -6.7022   -2.4662    3.0514 H       1  LIG1        0.0000
     43 H          -3.6415   -1.8051    5.2250 H       1  LIG1        0.0000
     44 H          -5.2423   -1.5378    5.0440 H       1  LIG1        0.0000
     45 H          -4.5955   -2.9647    4.5831 H       1  LIG1        0.0000
     46 H           2.9209    4.2400    1.0126 H       1  LIG1        0.0000
@<TRIPOS>BOND
     1     1     2    1
     2     2     3    1
     3     3     4    2
     4     3     5    1
     5     5     6   ar
     6     6     7   ar
     7     7     8   ar
     8     8     9    1
     9     8    10   ar
    10    10    11    1
    11    11    12   am
    12    12    13    2
    13    12    14    1
    14    14    15    2
    15    15    16    1
    16    16    17    1
    17    17    18   ar
    18    18    19   ar
    19    19    20   ar
    20    20    21   ar
    21    21    22   ar
    22    22    17   ar
    23    22    23    1
    24    23    24    1
    25    23    25    1
    26    25    16    2
    27    25    26    1
    28    26    14    1
    29    10    27   ar
    30    27     5   ar
    31    27    28    1
    32     1    29    1
    33     1    30    1
    34     1    31    1
    35     6    32    1
    36     7    33    1
    37     9    34    1
    38     9    35    1
    39     9    36    1
    40    11    37    1
    41    15    38    1
    42    18    39    1
    43    19    40    1
    44    20    41    1
    45    21    42    1
    46    24    43    1
    47    24    44    1
    48    24    45    1
    49    28    46    1
