@<TRIPOS>MOLECULE
*****
 46 49 0 0 0
SMALL
USER_CHARGES

@<TRIPOS>ATOM
      1 C1          6.6603    4.9199    2.0781 C.3     1  LIG1        0.0000
      2 O2          5.5836    3.9967    2.1469 O.3     1  LIG1        0.0000
      3 C3          5.2426    3.4422    1.0101 C.2     1  LIG1        0.0000
      4 O4          5.5553    3.9586   -0.0270 O.2     1  LIG1        0.0000
      5 C5          4.4872    2.2043    1.0049 C.3     1  LIG1        0.0000
      6 C6          5.1826    1.0001    1.0001 C.3     1  LIG1        0.0000
      7 C7          4.4869   -0.2047    0.9945 C.3     1  LIG1        0.0000
      8 C8          3.0962   -0.2047    0.9946 C.3     1  LIG1        0.0000
      9 C9          2.3361   -1.5212    0.9885 C.3     1  LIG1        0.0000
     10 C10         2.4006    1.0000    1.0000 C.3     1  LIG1        0.0000
     11 N11         1.0000    1.0000    1.0000 N.am    1  LIG1        0.0000
     12 C12         0.3150    0.9954    2.1864 C.2     1  LIG1        0.0000
     13 O13         0.7944    1.5113    3.1581 O.2     1  LIG1        0.0000
     14 C14        -0.9867    0.3684    2.2680 C.2     1  LIG1        0.0000
     15 C15        -1.4391   -0.6950    1.5386 C.2     1  LIG1        0.0000
     16 C16        -2.7728   -1.1305    1.8031 C.2     1  LIG1        0.0000
     17 C17        -3.8381   -2.0321    1.4986 C.3     1  LIG1        0.0000
     18 C18        -4.0349   -3.0993    0.6262 C.3     1  LIG1        0.0000
     19 C19        -5.2432   -3.7887    0.5744 C.3     1  LIG1        0.0000
     20 C20        -6.3070   -3.4396    1.4022 C.3     1  LIG1        0.0000
     21 C21        -6.1452   -2.3859    2.2915 C.3     1  LIG1        0.0000
     22 C22        -4.9174   -1.7330    2.2993 C.3     1  LIG1        0.0000
     23 N23        -4.5653   -0.6923    3.0894 N.pl3   1  LIG1        0.0000
     24 C24        -5.4040   -0.0431    4.1107 C.3     1  LIG1        0.0000
     25 C25        -3.2986   -0.3544    2.7595 C.2     1  LIG1        0.0000
     26 S26        -2.2375    0.8480    3.3203 S.3     1  LIG1        0.0000
     27 C27         3.0961    2.2045    1.0047 C.3     1  LIG1        0.0000
     28 O28         2.4209    3.3740    1.0093 O.2     1  LIG1        0.0000
     29 H           6.8440    5.2863    2.9902 H       1  LIG1        0.0000
     30 H           7.4766    4.4550    1.7351 H       1  LIG1        0.0000
     31 H           6.4187    5.6684    1.4606 H       1  LIG1        0.0000
     32 H           6.1826    1.0002    1.0006 H       1  LIG1        0.0000
     33 H           4.9869   -1.0707    0.9903 H       1  LIG1        0.0000
     34 H           2.9860   -2.2812    0.9852 H       1  LIG1        0.0000
     35 H           1.7611   -1.5779    1.8047 H       1  LIG1        0.0000
     36 H           1.7614   -1.5704    0.1717 H       1  LIG1        0.0000
     37 H           0.5000    1.0034    0.1340 H       1  LIG1        0.0000
     38 H          -0.8652   -1.1452    0.8545 H       1  LIG1        0.0000
     39 H          -3.2889   -3.3777    0.0211 H       1  LIG1        0.0000
     40 H          -5.3489   -4.5475   -0.0682 H       1  LIG1        0.0000
     41 H          -7.1722   -3.9389    1.3568 H       1  LIG1        0.0000
     42 H          -6.8846   -2.1066    2.9042 H       1  LIG1        0.0000
     43 H          -4.8900    0.6983    4.5421 H       1  LIG1        0.0000
     44 H          -6.2265    0.3283    3.6798 H       1  LIG1        0.0000
     45 H          -5.6652   -0.7149    4.8038 H       1  LIG1        0.0000
     46 H           2.9209    4.2400    1.0126 H       1  LIG1        0.0000
@<TRIPOS>BOND
     1     1     2    1
     2     2     3    1
     3     3     4    2
     4     3     5    1
     5     5     6   ar
     6     6     7   ar
     7     7     8   ar
     8     8     9    1
     9     8    10   ar
    10    10    11    1
    11    11    12   am
    12    12    13    2
    13    12    14    1
    14    14    15    2
    15    15    16    1
    16    16    17    1
    17    17    18   ar
    18    18    19   ar
    19    19    20   ar
    20    20    21   ar
    21    21    22   ar
    22    22    17   ar
    23    22    23    1
    24    23    24    1
    25    23    25    1
    26    25    16    2
    27    25    26    1
    28    26    14    1
    29    10    27   ar
    30    27     5   ar
    31    27    28    1
    32     1    29    1
    33     1    30    1
    34     1    31    1
    35     6    32    1
    36     7    33    1
    37     9    34    1
    38     9    35    1
    39     9    36    1
    40    11    37    1
    41    15    38    1
    42    18    39    1
    43    19    40    1
    44    20    41    1
    45    21    42    1
    46    24    43    1
    47    24    44    1
    48    24    45    1
    49    28    46    1
