@<TRIPOS>MOLECULE

  55   58
SMALL
USER_CHARGES
@<TRIPOS>ATOM
   1 C1          -1.6952    -9.2831    -0.2945 C.3          1    LIG   0.0000
   2 O2          -0.9702    -8.6011     0.7181 O.3          1    LIG   0.0000
   3 C3          -0.2348    -7.5498     0.2985 C.ar         1    LIG   0.0000
   4 C4           0.5088    -6.8215     1.2212 C.ar         1    LIG   0.0000
   5 C5           1.2655    -5.7407     0.7798 C.ar         1    LIG   0.0000
   6 C6           1.2719    -5.4007    -0.5693 C.ar         1    LIG   0.0000
   7 N7           2.0361    -4.3103    -1.0035 N.pl3        1    LIG   0.0000
   8 C8           2.1203    -3.8822    -2.2974 C.2          1    LIG   0.0000
   9 C9           2.9598    -2.8066    -2.2782 C.2          1    LIG   0.0000
  10 O10          3.3387    -2.0643    -3.3444 O.3          1    LIG   0.0000
  11 C11          3.3727    -2.6058    -0.9367 C.2          1    LIG   0.0000
  12 C12          4.2676    -1.5839    -0.4344 C.2          1    LIG   0.0000
  13 O13          5.4480    -1.7936    -0.3807 O.2          1    LIG   0.0000
  14 N14          3.7576    -0.3558    -0.0130 N.am         1    LIG   0.0000
  15 C15          4.5531     0.7510     0.5057 C.3          1    LIG   0.0000
  16 C16          3.7896     1.9437    -0.0276 C.3          1    LIG   0.0000
  17 C17          4.2534     2.2883    -1.4337 C.3          1    LIG   0.0000
  18 C18          5.6775     2.8170    -1.3822 C.2          1    LIG   0.0000
  19 O19          6.2477     2.9036    -0.3299 O.2          1    LIG   0.0000
  20 N20          6.3102     3.1946    -2.5372 N.am         1    LIG   0.0000
  21 C21          7.6875     3.7058    -2.4874 C.3          1    LIG   0.0000
  22 C22          5.6118     3.0885    -3.8263 C.3          1    LIG   0.0000
  23 C23          2.3761     1.4111    -0.0130 C.ar         1    LIG   0.0000
  24 C24          1.1649     2.0958     0.0008 C.ar         1    LIG   0.0000
  25 C25         -0.0222     1.3711     0.0105 C.ar         1    LIG   0.0000
  26 Cl26        -1.5710     2.2480     0.0282 Cl           1    LIG   0.0000
  27 C27          0.0001    -0.0204     0.0066 C.ar         1    LIG   0.0000
  28 C28          1.2251    -0.6794    -0.0055 C.ar         1    LIG   0.0000
  29 C29          2.4206     0.0327    -0.0147 C.ar         1    LIG   0.0000
  30 N30          2.7835    -3.5364    -0.2389 N.2          1    LIG   0.0000
  31 C31          0.5251    -6.1351    -1.4843 C.ar         1    LIG   0.0000
  32 C32         -0.2342    -7.2172    -1.0523 C.ar         1    LIG   0.0000
  33 H            3.8822     2.7303     0.5828 H            1    LIG   0.0000
  34 H           -2.2049   -10.0407     0.1132 H            1    LIG   0.0000
  35 H           -2.3332    -8.6494    -0.7320 H            1    LIG   0.0000
  36 H           -1.0582    -9.6396    -0.9780 H            1    LIG   0.0000
  37 H            0.4996    -7.0715     2.1895 H            1    LIG   0.0000
  38 H            1.8049    -5.2083     1.4321 H            1    LIG   0.0000
  39 H            1.6617    -4.2756    -3.0942 H            1    LIG   0.0000
  40 H            2.9919    -2.2851    -4.2560 H            1    LIG   0.0000
  41 H            5.4879     0.7270     0.1514 H            1    LIG   0.0000
  42 H            4.5754     0.7484     1.5055 H            1    LIG   0.0000
  43 H            4.2227     1.4683    -2.0052 H            1    LIG   0.0000
  44 H            3.6522     2.9872    -1.8211 H            1    LIG   0.0000
  45 H            7.9926     3.9325    -3.4124 H            1    LIG   0.0000
  46 H            7.7182     4.5259    -1.9159 H            1    LIG   0.0000
  47 H            8.2887     3.0069    -2.1000 H            1    LIG   0.0000
  48 H            6.2148     3.4038    -4.5591 H            1    LIG   0.0000
  49 H            5.3579     2.1353    -3.9904 H            1    LIG   0.0000
  50 H            4.7874     3.6542    -3.8063 H            1    LIG   0.0000
  51 H            1.1482     3.0956     0.0038 H            1    LIG   0.0000
  52 H           -0.8541    -0.5403     0.0124 H            1    LIG   0.0000
  53 H            1.2470    -1.6792    -0.0076 H            1    LIG   0.0000
  54 H            0.5342    -5.8852    -2.4525 H            1    LIG   0.0000
  55 H           -0.7732    -7.7497    -1.7048 H            1    LIG   0.0000
@<TRIPOS>BOND
   1        1        2 1
   2        2        3 1
   3        3        4 ar
   4        4        5 ar
   5        5        6 ar
   6        6        7 1
   7        7        8 1
   8        8        9 2
   9        9       10 1
  10        9       11 1
  11       11       12 1
  12       12       13 2
  13       12       14 am
  14       14       15 1
  15       15       16 1
  16       16       17 1
  17       17       18 1
  18       18       19 2
  19       18       20 am
  20       20       21 1
  21       20       22 1
  22       16       23 1
  23       23       24 ar
  24       24       25 ar
  25       25       26 1
  26       25       27 ar
  27       27       28 ar
  28       28       29 ar
  29       29       23 ar
  30       29       14 1
  31       11       30 2
  32       30        7 1
  33        6       31 ar
  34       31       32 ar
  35       32        3 ar
  36       16       33 1
  37        1       34 1
  38        1       35 1
  39        1       36 1
  40        4       37 1
  41        5       38 1
  42        8       39 1
  43       10       40 1
  44       15       41 1
  45       15       42 1
  46       17       43 1
  47       17       44 1
  48       21       45 1
  49       21       46 1
  50       21       47 1
  51       22       48 1
  52       22       49 1
  53       22       50 1
  54       24       51 1
  55       27       52 1
  56       28       53 1
  57       31       54 1
  58       32       55 1

@<TRIPOS>MOLECULE

  55   58
SMALL
USER_CHARGES
@<TRIPOS>ATOM
   1 C1          -0.9775    -6.6825    -6.8645 C.3          1    LIG   0.0000
   2 O2          -0.1199    -5.5576    -6.9890 O.3          1    LIG   0.0000
   3 C3           0.4431    -5.1261    -5.8406 C.ar         1    LIG   0.0000
   4 C4           1.2980    -4.0291    -5.8662 C.ar         1    LIG   0.0000
   5 C5           1.8725    -3.5899    -4.6776 C.ar         1    LIG   0.0000
   6 C6           1.5893    -4.2461    -3.4839 C.ar         1    LIG   0.0000
   7 N7           2.1735    -3.7968    -2.2930 N.pl3        1    LIG   0.0000
   8 C8           1.9723    -4.3585    -1.0647 C.2          1    LIG   0.0000
   9 C9           2.7202    -3.6216    -0.1931 C.2          1    LIG   0.0000
  10 O10          2.8209    -3.8161     1.1423 O.3          1    LIG   0.0000
  11 C11          3.3727    -2.6058    -0.9367 C.2          1    LIG   0.0000
  12 C12          4.2676    -1.5839    -0.4344 C.2          1    LIG   0.0000
  13 O13          5.4480    -1.7936    -0.3807 O.2          1    LIG   0.0000
  14 N14          3.7576    -0.3558    -0.0130 N.am         1    LIG   0.0000
  15 C15          4.5531     0.7510     0.5057 C.3          1    LIG   0.0000
  16 C16          3.7896     1.9437    -0.0276 C.3          1    LIG   0.0000
  17 C17          4.2534     2.2883    -1.4337 C.3          1    LIG   0.0000
  18 C18          5.6775     2.8170    -1.3822 C.2          1    LIG   0.0000
  19 O19          6.2477     2.9036    -0.3299 O.2          1    LIG   0.0000
  20 N20          6.3102     3.1946    -2.5372 N.am         1    LIG   0.0000
  21 C21          7.6875     3.7058    -2.4874 C.3          1    LIG   0.0000
  22 C22          5.6118     3.0885    -3.8263 C.3          1    LIG   0.0000
  23 C23          2.3761     1.4111    -0.0130 C.ar         1    LIG   0.0000
  24 C24          1.1649     2.0958     0.0008 C.ar         1    LIG   0.0000
  25 C25         -0.0222     1.3711     0.0105 C.ar         1    LIG   0.0000
  26 Cl26        -1.5710     2.2480     0.0282 Cl           1    LIG   0.0000
  27 C27          0.0001    -0.0204     0.0066 C.ar         1    LIG   0.0000
  28 C28          1.2251    -0.6794    -0.0055 C.ar         1    LIG   0.0000
  29 C29          2.4206     0.0327    -0.0147 C.ar         1    LIG   0.0000
  30 N30          2.9995    -2.7741    -2.1745 N.2          1    LIG   0.0000
  31 C31          0.7331    -5.3420    -3.4686 C.ar         1    LIG   0.0000
  32 C32          0.1541    -5.7881    -4.6517 C.ar         1    LIG   0.0000
  33 H            3.8822     2.7303     0.5828 H            1    LIG   0.0000
  34 H           -1.3429    -6.9242    -7.7634 H            1    LIG   0.0000
  35 H           -0.4616    -7.4557    -6.4955 H            1    LIG   0.0000
  36 H           -1.7318    -6.4599    -6.2469 H            1    LIG   0.0000
  37 H            1.4972    -3.5623    -6.7278 H            1    LIG   0.0000
  38 H            2.4889    -2.8025    -4.6813 H            1    LIG   0.0000
  39 H            1.3961    -5.1467    -0.8487 H            1    LIG   0.0000
  40 H            2.3196    -4.5637     1.5779 H            1    LIG   0.0000
  41 H            5.4879     0.7270     0.1514 H            1    LIG   0.0000
  42 H            4.5754     0.7484     1.5055 H            1    LIG   0.0000
  43 H            4.2227     1.4683    -2.0052 H            1    LIG   0.0000
  44 H            3.6522     2.9872    -1.8211 H            1    LIG   0.0000
  45 H            7.9926     3.9325    -3.4124 H            1    LIG   0.0000
  46 H            7.7182     4.5259    -1.9159 H            1    LIG   0.0000
  47 H            8.2887     3.0069    -2.1000 H            1    LIG   0.0000
  48 H            6.2148     3.4038    -4.5591 H            1    LIG   0.0000
  49 H            5.3579     2.1353    -3.9904 H            1    LIG   0.0000
  50 H            4.7874     3.6542    -3.8063 H            1    LIG   0.0000
  51 H            1.1482     3.0956     0.0038 H            1    LIG   0.0000
  52 H           -0.8541    -0.5403     0.0124 H            1    LIG   0.0000
  53 H            1.2470    -1.6792    -0.0076 H            1    LIG   0.0000
  54 H            0.5339    -5.8090    -2.6071 H            1    LIG   0.0000
  55 H           -0.4626    -6.5753    -4.6478 H            1    LIG   0.0000
@<TRIPOS>BOND
   1        1        2 1
   2        2        3 1
   3        3        4 ar
   4        4        5 ar
   5        5        6 ar
   6        6        7 1
   7        7        8 1
   8        8        9 2
   9        9       10 1
  10        9       11 1
  11       11       12 1
  12       12       13 2
  13       12       14 am
  14       14       15 1
  15       15       16 1
  16       16       17 1
  17       17       18 1
  18       18       19 2
  19       18       20 am
  20       20       21 1
  21       20       22 1
  22       16       23 1
  23       23       24 ar
  24       24       25 ar
  25       25       26 1
  26       25       27 ar
  27       27       28 ar
  28       28       29 ar
  29       29       23 ar
  30       29       14 1
  31       11       30 2
  32       30        7 1
  33        6       31 ar
  34       31       32 ar
  35       32        3 ar
  36       16       33 1
  37        1       34 1
  38        1       35 1
  39        1       36 1
  40        4       37 1
  41        5       38 1
  42        8       39 1
  43       10       40 1
  44       15       41 1
  45       15       42 1
  46       17       43 1
  47       17       44 1
  48       21       45 1
  49       21       46 1
  50       21       47 1
  51       22       48 1
  52       22       49 1
  53       22       50 1
  54       24       51 1
  55       27       52 1
  56       28       53 1
  57       31       54 1
  58       32       55 1

@<TRIPOS>MOLECULE

  55   58
SMALL
USER_CHARGES
@<TRIPOS>ATOM
   1 C1          13.7075     0.0916     1.2789 C.3          1    LIG   0.0000
   2 O2          12.5373     0.8770     1.4527 O.3          1    LIG   0.0000
   3 C3          11.3799     0.2828     1.0930 C.ar         1    LIG   0.0000
   4 C4          10.1821     0.9769     1.2284 C.ar         1    LIG   0.0000
   5 C5           8.9940     0.3576     0.8533 C.ar         1    LIG   0.0000
   6 C6           9.0142    -0.9395     0.3505 C.ar         1    LIG   0.0000
   7 N7           7.8126    -1.5545    -0.0231 N.pl3        1    LIG   0.0000
   8 C8           7.7070    -2.8194    -0.5266 C.2          1    LIG   0.0000
   9 C9           6.3761    -3.0184    -0.7528 C.2          1    LIG   0.0000
  10 O10          5.8057    -4.1371    -1.2572 O.3          1    LIG   0.0000
  11 C11          5.6922    -1.8370    -0.3696 C.2          1    LIG   0.0000
  12 C12          4.2676    -1.5839    -0.4344 C.2          1    LIG   0.0000
  13 O13          3.5261    -2.4306    -0.8505 O.2          1    LIG   0.0000
  14 N14          3.7576    -0.3558    -0.0130 N.am         1    LIG   0.0000
  15 C15          4.5531     0.7510     0.5057 C.3          1    LIG   0.0000
  16 C16          3.7896     1.9437    -0.0276 C.3          1    LIG   0.0000
  17 C17          4.2534     2.2883    -1.4337 C.3          1    LIG   0.0000
  18 C18          5.6775     2.8170    -1.3822 C.2          1    LIG   0.0000
  19 O19          6.2477     2.9036    -0.3299 O.2          1    LIG   0.0000
  20 N20          6.3102     3.1946    -2.5372 N.am         1    LIG   0.0000
  21 C21          7.6875     3.7058    -2.4874 C.3          1    LIG   0.0000
  22 C22          5.6118     3.0885    -3.8263 C.3          1    LIG   0.0000
  23 C23          2.3761     1.4111    -0.0130 C.ar         1    LIG   0.0000
  24 C24          1.1649     2.0958     0.0008 C.ar         1    LIG   0.0000
  25 C25         -0.0222     1.3711     0.0105 C.ar         1    LIG   0.0000
  26 Cl26        -1.5710     2.2480     0.0282 Cl           1    LIG   0.0000
  27 C27          0.0001    -0.0204     0.0066 C.ar         1    LIG   0.0000
  28 C28          1.2251    -0.6794    -0.0055 C.ar         1    LIG   0.0000
  29 C29          2.4206     0.0327    -0.0147 C.ar         1    LIG   0.0000
  30 N30          6.6109    -1.0140     0.0531 N.2          1    LIG   0.0000
  31 C31         10.2169    -1.6252     0.2189 C.ar         1    LIG   0.0000
  32 C32         11.4095    -1.0143     0.5910 C.ar         1    LIG   0.0000
  33 H            3.8822     2.7303     0.5828 H            1    LIG   0.0000
  34 H           14.5073     0.6158     1.5715 H            1    LIG   0.0000
  35 H           13.6351    -0.7406     1.8286 H            1    LIG   0.0000
  36 H           13.8043    -0.1534     0.3142 H            1    LIG   0.0000
  37 H           10.1750     1.9090     1.5905 H            1    LIG   0.0000
  38 H            8.1256     0.8448     0.9452 H            1    LIG   0.0000
  39 H            8.4510    -3.4660    -0.6948 H            1    LIG   0.0000
  40 H            6.3747    -4.9231    -1.4989 H            1    LIG   0.0000
  41 H            5.4879     0.7270     0.1514 H            1    LIG   0.0000
  42 H            4.5754     0.7484     1.5055 H            1    LIG   0.0000
  43 H            4.2227     1.4683    -2.0052 H            1    LIG   0.0000
  44 H            3.6522     2.9872    -1.8211 H            1    LIG   0.0000
  45 H            7.9926     3.9325    -3.4124 H            1    LIG   0.0000
  46 H            7.7182     4.5259    -1.9159 H            1    LIG   0.0000
  47 H            8.2887     3.0069    -2.1000 H            1    LIG   0.0000
  48 H            6.2148     3.4038    -4.5591 H            1    LIG   0.0000
  49 H            5.3579     2.1353    -3.9904 H            1    LIG   0.0000
  50 H            4.7874     3.6542    -3.8063 H            1    LIG   0.0000
  51 H            1.1482     3.0956     0.0038 H            1    LIG   0.0000
  52 H           -0.8541    -0.5403     0.0124 H            1    LIG   0.0000
  53 H            1.2470    -1.6792    -0.0076 H            1    LIG   0.0000
  54 H           10.2242    -2.5573    -0.1432 H            1    LIG   0.0000
  55 H           12.2779    -1.5015     0.4988 H            1    LIG   0.0000
@<TRIPOS>BOND
   1        1        2 1
   2        2        3 1
   3        3        4 ar
   4        4        5 ar
   5        5        6 ar
   6        6        7 1
   7        7        8 1
   8        8        9 2
   9        9       10 1
  10        9       11 1
  11       11       12 1
  12       12       13 2
  13       12       14 am
  14       14       15 1
  15       15       16 1
  16       16       17 1
  17       17       18 1
  18       18       19 2
  19       18       20 am
  20       20       21 1
  21       20       22 1
  22       16       23 1
  23       23       24 ar
  24       24       25 ar
  25       25       26 1
  26       25       27 ar
  27       27       28 ar
  28       28       29 ar
  29       29       23 ar
  30       29       14 1
  31       11       30 2
  32       30        7 1
  33        6       31 ar
  34       31       32 ar
  35       32        3 ar
  36       16       33 1
  37        1       34 1
  38        1       35 1
  39        1       36 1
  40        4       37 1
  41        5       38 1
  42        8       39 1
  43       10       40 1
  44       15       41 1
  45       15       42 1
  46       17       43 1
  47       17       44 1
  48       21       45 1
  49       21       46 1
  50       21       47 1
  51       22       48 1
  52       22       49 1
  53       22       50 1
  54       24       51 1
  55       27       52 1
  56       28       53 1
  57       31       54 1
  58       32       55 1

@<TRIPOS>MOLECULE

  55   58
SMALL
USER_CHARGES
@<TRIPOS>ATOM
   1 C1          13.5620    -1.9056    -3.3266 C.3          1    LIG   0.0000
   2 O2          12.3680    -1.4585    -3.9519 O.3          1    LIG   0.0000
   3 C3          11.2452    -1.5770    -3.2121 C.ar         1    LIG   0.0000
   4 C4          10.0276    -1.1643    -3.7433 C.ar         1    LIG   0.0000
   5 C5           8.8750    -1.2918    -2.9747 C.ar         1    LIG   0.0000
   6 C6           8.9495    -1.8264    -1.6924 C.ar         1    LIG   0.0000
   7 N7           7.7835    -1.9495    -0.9263 N.pl3        1    LIG   0.0000
   8 C8           7.7321    -2.4566     0.3405 C.2          1    LIG   0.0000
   9 C9           6.4203    -2.3951     0.7115 C.2          1    LIG   0.0000
  10 O10          5.9004    -2.7979     1.8942 O.3          1    LIG   0.0000
  11 C11          5.6922    -1.8370    -0.3696 C.2          1    LIG   0.0000
  12 C12          4.2676    -1.5839    -0.4344 C.2          1    LIG   0.0000
  13 O13          3.5261    -2.4306    -0.8505 O.2          1    LIG   0.0000
  14 N14          3.7576    -0.3558    -0.0130 N.am         1    LIG   0.0000
  15 C15          4.5531     0.7510     0.5057 C.3          1    LIG   0.0000
  16 C16          3.7896     1.9437    -0.0276 C.3          1    LIG   0.0000
  17 C17          4.2534     2.2883    -1.4337 C.3          1    LIG   0.0000
  18 C18          5.6775     2.8170    -1.3822 C.2          1    LIG   0.0000
  19 O19          6.2477     2.9036    -0.3299 O.2          1    LIG   0.0000
  20 N20          6.3102     3.1946    -2.5372 N.am         1    LIG   0.0000
  21 C21          7.6875     3.7058    -2.4874 C.3          1    LIG   0.0000
  22 C22          5.6118     3.0885    -3.8263 C.3          1    LIG   0.0000
  23 C23          2.3761     1.4111    -0.0130 C.ar         1    LIG   0.0000
  24 C24          1.1649     2.0958     0.0008 C.ar         1    LIG   0.0000
  25 C25         -0.0222     1.3711     0.0105 C.ar         1    LIG   0.0000
  26 Cl26        -1.5710     2.2480     0.0282 Cl           1    LIG   0.0000
  27 C27          0.0001    -0.0204     0.0066 C.ar         1    LIG   0.0000
  28 C28          1.2251    -0.6794    -0.0055 C.ar         1    LIG   0.0000
  29 C29          2.4206     0.0327    -0.0147 C.ar         1    LIG   0.0000
  30 N30          6.5687    -1.5984    -1.3048 N.2          1    LIG   0.0000
  31 C31         10.1715    -2.2363    -1.1702 C.ar         1    LIG   0.0000
  32 C32         11.3289    -2.1129    -1.9311 C.ar         1    LIG   0.0000
  33 H            3.8822     2.7303     0.5828 H            1    LIG   0.0000
  34 H           14.3331    -1.7773    -3.9503 H            1    LIG   0.0000
  35 H           13.7180    -1.3790    -2.4910 H            1    LIG   0.0000
  36 H           13.4758    -2.8754    -3.0983 H            1    LIG   0.0000
  37 H            9.9814    -0.7809    -4.6658 H            1    LIG   0.0000
  38 H            7.9929    -0.9992    -3.3440 H            1    LIG   0.0000
  39 H            8.4973    -2.8016     0.8840 H            1    LIG   0.0000
  40 H            6.4980    -3.1810     2.5985 H            1    LIG   0.0000
  41 H            5.4879     0.7270     0.1514 H            1    LIG   0.0000
  42 H            4.5754     0.7484     1.5055 H            1    LIG   0.0000
  43 H            4.2227     1.4683    -2.0052 H            1    LIG   0.0000
  44 H            3.6522     2.9872    -1.8211 H            1    LIG   0.0000
  45 H            7.9926     3.9325    -3.4124 H            1    LIG   0.0000
  46 H            7.7182     4.5259    -1.9159 H            1    LIG   0.0000
  47 H            8.2887     3.0069    -2.1000 H            1    LIG   0.0000
  48 H            6.2148     3.4038    -4.5591 H            1    LIG   0.0000
  49 H            5.3579     2.1353    -3.9904 H            1    LIG   0.0000
  50 H            4.7874     3.6542    -3.8063 H            1    LIG   0.0000
  51 H            1.1482     3.0956     0.0038 H            1    LIG   0.0000
  52 H           -0.8541    -0.5403     0.0124 H            1    LIG   0.0000
  53 H            1.2470    -1.6792    -0.0076 H            1    LIG   0.0000
  54 H           10.2179    -2.6197    -0.2477 H            1    LIG   0.0000
  55 H           12.2109    -2.4059    -1.5618 H            1    LIG   0.0000
@<TRIPOS>BOND
   1        1        2 1
   2        2        3 1
   3        3        4 ar
   4        4        5 ar
   5        5        6 ar
   6        6        7 1
   7        7        8 1
   8        8        9 2
   9        9       10 1
  10        9       11 1
  11       11       12 1
  12       12       13 2
  13       12       14 am
  14       14       15 1
  15       15       16 1
  16       16       17 1
  17       17       18 1
  18       18       19 2
  19       18       20 am
  20       20       21 1
  21       20       22 1
  22       16       23 1
  23       23       24 ar
  24       24       25 ar
  25       25       26 1
  26       25       27 ar
  27       27       28 ar
  28       28       29 ar
  29       29       23 ar
  30       29       14 1
  31       11       30 2
  32       30        7 1
  33        6       31 ar
  34       31       32 ar
  35       32        3 ar
  36       16       33 1
  37        1       34 1
  38        1       35 1
  39        1       36 1
  40        4       37 1
  41        5       38 1
  42        8       39 1
  43       10       40 1
  44       15       41 1
  45       15       42 1
  46       17       43 1
  47       17       44 1
  48       21       45 1
  49       21       46 1
  50       21       47 1
  51       22       48 1
  52       22       49 1
  53       22       50 1
  54       24       51 1
  55       27       52 1
  56       28       53 1
  57       31       54 1
  58       32       55 1

@<TRIPOS>MOLECULE

  55   58
SMALL
USER_CHARGES
@<TRIPOS>ATOM
   1 C1          12.8133    -4.4318     3.2688 C.3          1    LIG   0.0000
   2 O2          11.4884    -4.4314     3.7796 O.3          1    LIG   0.0000
   3 C3          10.5444    -3.9457     2.9459 C.ar         1    LIG   0.0000
   4 C4           9.2175    -3.9063     3.3614 C.ar         1    LIG   0.0000
   5 C5           8.2513    -3.4023     2.4965 C.ar         1    LIG   0.0000
   6 C6           8.6175    -2.9460     1.2342 C.ar         1    LIG   0.0000
   7 N7           7.6371    -2.4415     0.3706 N.pl3        1    LIG   0.0000
   8 C8           7.8748    -1.9676    -0.8878 C.2          1    LIG   0.0000
   9 C9           6.6599    -1.5801    -1.3736 C.2          1    LIG   0.0000
  10 O10          6.4163    -1.0417    -2.5910 O.3          1    LIG   0.0000
  11 C11          5.6922    -1.8370    -0.3696 C.2          1    LIG   0.0000
  12 C12          4.2676    -1.5839    -0.4344 C.2          1    LIG   0.0000
  13 O13          3.5261    -2.4306    -0.8505 O.2          1    LIG   0.0000
  14 N14          3.7576    -0.3558    -0.0130 N.am         1    LIG   0.0000
  15 C15          4.5531     0.7510     0.5057 C.3          1    LIG   0.0000
  16 C16          3.7896     1.9437    -0.0276 C.3          1    LIG   0.0000
  17 C17          4.2534     2.2883    -1.4337 C.3          1    LIG   0.0000
  18 C18          5.6775     2.8170    -1.3822 C.2          1    LIG   0.0000
  19 O19          6.2477     2.9036    -0.3299 O.2          1    LIG   0.0000
  20 N20          6.3102     3.1946    -2.5372 N.am         1    LIG   0.0000
  21 C21          7.6875     3.7058    -2.4874 C.3          1    LIG   0.0000
  22 C22          5.6118     3.0885    -3.8263 C.3          1    LIG   0.0000
  23 C23          2.3761     1.4111    -0.0130 C.ar         1    LIG   0.0000
  24 C24          1.1649     2.0958     0.0008 C.ar         1    LIG   0.0000
  25 C25         -0.0222     1.3711     0.0105 C.ar         1    LIG   0.0000
  26 Cl26        -1.5710     2.2480     0.0282 Cl           1    LIG   0.0000
  27 C27          0.0001    -0.0204     0.0066 C.ar         1    LIG   0.0000
  28 C28          1.2251    -0.6794    -0.0055 C.ar         1    LIG   0.0000
  29 C29          2.4206     0.0327    -0.0147 C.ar         1    LIG   0.0000
  30 N30          6.3474    -2.3477     0.6352 N.2          1    LIG   0.0000
  31 C31          9.9469    -2.9894     0.8279 C.ar         1    LIG   0.0000
  32 C32         10.9196    -3.4913     1.6857 C.ar         1    LIG   0.0000
  33 H            3.8822     2.7303     0.5828 H            1    LIG   0.0000
  34 H           13.4353    -4.8077     3.9558 H            1    LIG   0.0000
  35 H           12.8517    -4.9930     2.4420 H            1    LIG   0.0000
  36 H           13.0862    -3.4952     3.0490 H            1    LIG   0.0000
  37 H            8.9614    -4.2360     4.2701 H            1    LIG   0.0000
  38 H            7.2936    -3.3680     2.7821 H            1    LIG   0.0000
  39 H            8.7566    -1.9153    -1.3564 H            1    LIG   0.0000
  40 H            7.1687    -0.8984    -3.2340 H            1    LIG   0.0000
  41 H            5.4879     0.7270     0.1514 H            1    LIG   0.0000
  42 H            4.5754     0.7484     1.5055 H            1    LIG   0.0000
  43 H            4.2227     1.4683    -2.0052 H            1    LIG   0.0000
  44 H            3.6522     2.9872    -1.8211 H            1    LIG   0.0000
  45 H            7.9926     3.9325    -3.4124 H            1    LIG   0.0000
  46 H            7.7182     4.5259    -1.9159 H            1    LIG   0.0000
  47 H            8.2887     3.0069    -2.1000 H            1    LIG   0.0000
  48 H            6.2148     3.4038    -4.5591 H            1    LIG   0.0000
  49 H            5.3579     2.1353    -3.9904 H            1    LIG   0.0000
  50 H            4.7874     3.6542    -3.8063 H            1    LIG   0.0000
  51 H            1.1482     3.0956     0.0038 H            1    LIG   0.0000
  52 H           -0.8541    -0.5403     0.0124 H            1    LIG   0.0000
  53 H            1.2470    -1.6792    -0.0076 H            1    LIG   0.0000
  54 H           10.2032    -2.6598    -0.0807 H            1    LIG   0.0000
  55 H           11.8774    -3.5252     1.4000 H            1    LIG   0.0000
@<TRIPOS>BOND
   1        1        2 1
   2        2        3 1
   3        3        4 ar
   4        4        5 ar
   5        5        6 ar
   6        6        7 1
   7        7        8 1
   8        8        9 2
   9        9       10 1
  10        9       11 1
  11       11       12 1
  12       12       13 2
  13       12       14 am
  14       14       15 1
  15       15       16 1
  16       16       17 1
  17       17       18 1
  18       18       19 2
  19       18       20 am
  20       20       21 1
  21       20       22 1
  22       16       23 1
  23       23       24 ar
  24       24       25 ar
  25       25       26 1
  26       25       27 ar
  27       27       28 ar
  28       28       29 ar
  29       29       23 ar
  30       29       14 1
  31       11       30 2
  32       30        7 1
  33        6       31 ar
  34       31       32 ar
  35       32        3 ar
  36       16       33 1
  37        1       34 1
  38        1       35 1
  39        1       36 1
  40        4       37 1
  41        5       38 1
  42        8       39 1
  43       10       40 1
  44       15       41 1
  45       15       42 1
  46       17       43 1
  47       17       44 1
  48       21       45 1
  49       21       46 1
  50       21       47 1
  51       22       48 1
  52       22       49 1
  53       22       50 1
  54       24       51 1
  55       27       52 1
  56       28       53 1
  57       31       54 1
  58       32       55 1

@<TRIPOS>MOLECULE

  55   58
SMALL
USER_CHARGES
@<TRIPOS>ATOM
   1 C1          -0.9853    -6.5603     6.9776 C.3          1    LIG   0.0000
   2 O2          -0.1113    -5.4457     7.0783 O.3          1    LIG   0.0000
   3 C3           0.4397    -5.0325     5.9174 C.ar         1    LIG   0.0000
   4 C4           1.3093    -3.9468     5.9195 C.ar         1    LIG   0.0000
   5 C5           1.8741    -3.5288     4.7188 C.ar         1    LIG   0.0000
   6 C6           1.5669    -4.1945     3.5364 C.ar         1    LIG   0.0000
   7 N7           2.1400    -3.7652     2.3327 N.pl3        1    LIG   0.0000
   8 C8           1.9141    -4.3369     1.1134 C.2          1    LIG   0.0000
   9 C9           2.6586    -3.6185     0.2235 C.2          1    LIG   0.0000
  10 O10          2.7460    -3.8346    -1.1095 O.3          1    LIG   0.0000
  11 C11          3.3337    -2.6030     0.9470 C.2          1    LIG   0.0000
  12 C12          4.2396    -1.6020     0.4224 C.2          1    LIG   0.0000
  13 O13          5.4160    -1.8308     0.3608 O.2          1    LIG   0.0000
  14 N14          3.7430    -0.3680    -0.0126 N.am         1    LIG   0.0000
  15 C15          4.5263     0.7391    -0.5604 C.3          1    LIG   0.0000
  16 C16          3.7872     1.9447    -0.0272 C.3          1    LIG   0.0000
  17 C17          3.9433     3.1529    -0.9367 C.3          1    LIG   0.0000
  18 C18          5.3883     3.6236    -0.9104 C.2          1    LIG   0.0000
  19 O19          6.1949     3.0472    -0.2342 O.2          1    LIG   0.0000
  20 N20          5.7700     4.7059    -1.6586 N.am         1    LIG   0.0000
  21 C21          7.1675     5.1611    -1.6331 C.3          1    LIG   0.0000
  22 C22          4.7819     5.4120    -2.4870 C.3          1    LIG   0.0000
  23 C23          2.3616     1.4239    -0.0087 C.ar         1    LIG   0.0000
  24 C24          1.1516     2.1091    -0.0001 C.ar         1    LIG   0.0000
  25 C25         -0.0229     1.3692     0.0107 C.ar         1    LIG   0.0000
  26 Cl26        -1.5701     2.2470     0.0290 Cl           1    LIG   0.0000
  27 C27         -0.0068    -0.0210     0.0114 C.ar         1    LIG   0.0000
  28 C28          1.2207    -0.6727     0.0031 C.ar         1    LIG   0.0000
  29 C29          2.4128     0.0470    -0.0063 C.ar         1    LIG   0.0000
  30 N30          2.9761    -2.7537     2.1917 N.2          1    LIG   0.0000
  31 C31          0.6964    -5.2791     3.5445 C.ar         1    LIG   0.0000
  32 C32          0.1271    -5.7043     4.7400 C.ar         1    LIG   0.0000
  33 H            4.0932     2.1618     0.8997 H            1    LIG   0.0000
  34 H           -1.3400    -6.7888     7.8842 H            1    LIG   0.0000
  35 H           -1.7461    -6.3334     6.3695 H            1    LIG   0.0000
  36 H           -0.4854    -7.3436     6.6081 H            1    LIG   0.0000
  37 H            1.5256    -3.4729     6.7731 H            1    LIG   0.0000
  38 H            2.5010    -2.7498     4.7056 H            1    LIG   0.0000
  39 H            1.3251    -5.1199     0.9137 H            1    LIG   0.0000
  40 H            2.2289    -4.5800    -1.5302 H            1    LIG   0.0000
  41 H            4.5244     0.7252    -1.5603 H            1    LIG   0.0000
  42 H            5.4693     0.7156    -0.2285 H            1    LIG   0.0000
  43 H            3.6916     2.9013    -1.8713 H            1    LIG   0.0000
  44 H            3.3469     3.8895    -0.6177 H            1    LIG   0.0000
  45 H            7.2701     5.9558    -2.2314 H            1    LIG   0.0000
  46 H            7.4191     5.4127    -0.6986 H            1    LIG   0.0000
  47 H            7.7639     4.4245    -1.9521 H            1    LIG   0.0000
  48 H            5.2270     6.1707    -2.9627 H            1    LIG   0.0000
  49 H            4.3957     4.7787    -3.1576 H            1    LIG   0.0000
  50 H            4.0510     5.7669    -1.9041 H            1    LIG   0.0000
  51 H            1.1282     3.1089    -0.0017 H            1    LIG   0.0000
  52 H           -0.8608    -0.5412     0.0178 H            1    LIG   0.0000
  53 H            1.2482    -1.6723     0.0039 H            1    LIG   0.0000
  54 H            0.4799    -5.7531     2.6910 H            1    LIG   0.0000
  55 H           -0.4995    -6.4835     4.7531 H            1    LIG   0.0000
@<TRIPOS>BOND
   1        1        2 1
   2        2        3 1
   3        3        4 ar
   4        4        5 ar
   5        5        6 ar
   6        6        7 1
   7        7        8 1
   8        8        9 2
   9        9       10 1
  10        9       11 1
  11       11       12 1
  12       12       13 2
  13       12       14 am
  14       14       15 1
  15       15       16 1
  16       16       17 1
  17       17       18 1
  18       18       19 2
  19       18       20 am
  20       20       21 1
  21       20       22 1
  22       16       23 1
  23       23       24 ar
  24       24       25 ar
  25       25       26 1
  26       25       27 ar
  27       27       28 ar
  28       28       29 ar
  29       29       23 ar
  30       29       14 1
  31       11       30 2
  32       30        7 1
  33        6       31 ar
  34       31       32 ar
  35       32        3 ar
  36       16       33 1
  37        1       34 1
  38        1       35 1
  39        1       36 1
  40        4       37 1
  41        5       38 1
  42        8       39 1
  43       10       40 1
  44       15       41 1
  45       15       42 1
  46       17       43 1
  47       17       44 1
  48       21       45 1
  49       21       46 1
  50       21       47 1
  51       22       48 1
  52       22       49 1
  53       22       50 1
  54       24       51 1
  55       27       52 1
  56       28       53 1
  57       31       54 1
  58       32       55 1

@<TRIPOS>MOLECULE

  55   58
SMALL
USER_CHARGES
@<TRIPOS>ATOM
   1 C1          -1.8801    -9.1785     0.4364 C.3          1    LIG   0.0000
   2 O2          -1.1524    -8.5232    -0.5919 O.3          1    LIG   0.0000
   3 C3          -0.3890    -7.4843    -0.1920 C.ar         1    LIG   0.0000
   4 C4           0.3594    -6.7822    -1.1311 C.ar         1    LIG   0.0000
   5 C5           1.1420    -5.7115    -0.7105 C.ar         1    LIG   0.0000
   6 C6           1.1689    -5.3553     0.6341 C.ar         1    LIG   0.0000
   7 N7           1.9608    -4.2766     1.0475 N.pl3        1    LIG   0.0000
   8 C8           2.0682    -3.8358     2.3354 C.2          1    LIG   0.0000
   9 C9           2.9304    -2.7789     2.2949 C.2          1    LIG   0.0000
  10 O10          3.3285    -2.0264     3.3468 O.3          1    LIG   0.0000
  11 C11          3.3337    -2.6030     0.9470 C.2          1    LIG   0.0000
  12 C12          4.2396    -1.6020     0.4224 C.2          1    LIG   0.0000
  13 O13          5.4160    -1.8308     0.3608 O.2          1    LIG   0.0000
  14 N14          3.7430    -0.3680    -0.0126 N.am         1    LIG   0.0000
  15 C15          4.5263     0.7391    -0.5604 C.3          1    LIG   0.0000
  16 C16          3.7872     1.9447    -0.0272 C.3          1    LIG   0.0000
  17 C17          3.9433     3.1529    -0.9367 C.3          1    LIG   0.0000
  18 C18          5.3883     3.6236    -0.9104 C.2          1    LIG   0.0000
  19 O19          6.1949     3.0472    -0.2342 O.2          1    LIG   0.0000
  20 N20          5.7700     4.7059    -1.6586 N.am         1    LIG   0.0000
  21 C21          7.1675     5.1611    -1.6331 C.3          1    LIG   0.0000
  22 C22          4.7819     5.4120    -2.4870 C.3          1    LIG   0.0000
  23 C23          2.3616     1.4239    -0.0087 C.ar         1    LIG   0.0000
  24 C24          1.1516     2.1091    -0.0001 C.ar         1    LIG   0.0000
  25 C25         -0.0229     1.3692     0.0107 C.ar         1    LIG   0.0000
  26 Cl26        -1.5701     2.2470     0.0290 Cl           1    LIG   0.0000
  27 C27         -0.0068    -0.0210     0.0114 C.ar         1    LIG   0.0000
  28 C28          1.2207    -0.6727     0.0031 C.ar         1    LIG   0.0000
  29 C29          2.4128     0.0470    -0.0063 C.ar         1    LIG   0.0000
  30 N30          2.7172    -3.5284     0.2663 N.2          1    LIG   0.0000
  31 C31          0.4170    -6.0634     1.5655 C.ar         1    LIG   0.0000
  32 C32         -0.3683    -7.1350     1.1544 C.ar         1    LIG   0.0000
  33 H            4.0932     2.1618     0.8997 H            1    LIG   0.0000
  34 H           -2.4112    -9.9288     0.0427 H            1    LIG   0.0000
  35 H           -1.2430    -9.5419     1.1161 H            1    LIG   0.0000
  36 H           -2.4987    -8.5263     0.8746 H            1    LIG   0.0000
  37 H            0.3354    -7.0437    -2.0960 H            1    LIG   0.0000
  38 H            1.6851    -5.1978    -1.3748 H            1    LIG   0.0000
  39 H            1.6098    -4.2101     3.1416 H            1    LIG   0.0000
  40 H            2.9872    -2.2295     4.2645 H            1    LIG   0.0000
  41 H            4.5244     0.7252    -1.5603 H            1    LIG   0.0000
  42 H            5.4693     0.7156    -0.2285 H            1    LIG   0.0000
  43 H            3.6916     2.9013    -1.8713 H            1    LIG   0.0000
  44 H            3.3469     3.8895    -0.6177 H            1    LIG   0.0000
  45 H            7.2701     5.9558    -2.2314 H            1    LIG   0.0000
  46 H            7.4191     5.4127    -0.6986 H            1    LIG   0.0000
  47 H            7.7639     4.4245    -1.9521 H            1    LIG   0.0000
  48 H            5.2270     6.1707    -2.9627 H            1    LIG   0.0000
  49 H            4.3957     4.7787    -3.1576 H            1    LIG   0.0000
  50 H            4.0510     5.7669    -1.9041 H            1    LIG   0.0000
  51 H            1.1282     3.1089    -0.0017 H            1    LIG   0.0000
  52 H           -0.8608    -0.5412     0.0178 H            1    LIG   0.0000
  53 H            1.2482    -1.6723     0.0039 H            1    LIG   0.0000
  54 H            0.4410    -5.8021     2.5304 H            1    LIG   0.0000
  55 H           -0.9116    -7.6483     1.8188 H            1    LIG   0.0000
@<TRIPOS>BOND
   1        1        2 1
   2        2        3 1
   3        3        4 ar
   4        4        5 ar
   5        5        6 ar
   6        6        7 1
   7        7        8 1
   8        8        9 2
   9        9       10 1
  10        9       11 1
  11       11       12 1
  12       12       13 2
  13       12       14 am
  14       14       15 1
  15       15       16 1
  16       16       17 1
  17       17       18 1
  18       18       19 2
  19       18       20 am
  20       20       21 1
  21       20       22 1
  22       16       23 1
  23       23       24 ar
  24       24       25 ar
  25       25       26 1
  26       25       27 ar
  27       27       28 ar
  28       28       29 ar
  29       29       23 ar
  30       29       14 1
  31       11       30 2
  32       30        7 1
  33        6       31 ar
  34       31       32 ar
  35       32        3 ar
  36       16       33 1
  37        1       34 1
  38        1       35 1
  39        1       36 1
  40        4       37 1
  41        5       38 1
  42        8       39 1
  43       10       40 1
  44       15       41 1
  45       15       42 1
  46       17       43 1
  47       17       44 1
  48       21       45 1
  49       21       46 1
  50       21       47 1
  51       22       48 1
  52       22       49 1
  53       22       50 1
  54       24       51 1
  55       27       52 1
  56       28       53 1
  57       31       54 1
  58       32       55 1

@<TRIPOS>MOLECULE

  55   58
SMALL
USER_CHARGES
@<TRIPOS>ATOM
   1 C1           5.3108    -2.1783     9.6380 C.3          1    LIG   0.0000
   2 O2           4.2359    -2.9665     9.1484 O.3          1    LIG   0.0000
   3 C3           4.0386    -2.9155     7.8141 C.ar         1    LIG   0.0000
   4 C4           4.8691    -2.1234     7.0281 C.ar         1    LIG   0.0000
   5 C5           4.6598    -2.0783     5.6534 C.ar         1    LIG   0.0000
   6 C6           3.6305    -2.8193     5.0816 C.ar         1    LIG   0.0000
   7 N7           3.4274    -2.7662     3.6969 N.pl3        1    LIG   0.0000
   8 C8           2.4529    -3.4463     3.0245 C.2          1    LIG   0.0000
   9 C9           2.6088    -3.1145     1.7100 C.2          1    LIG   0.0000
  10 O10          1.8610    -3.5618     0.6746 O.3          1    LIG   0.0000
  11 C11          3.7031    -2.2175     1.6187 C.2          1    LIG   0.0000
  12 C12          4.2396    -1.6020     0.4224 C.2          1    LIG   0.0000
  13 O13          5.1099    -2.1502    -0.1957 O.2          1    LIG   0.0000
  14 N14          3.7430    -0.3680    -0.0126 N.am         1    LIG   0.0000
  15 C15          4.5263     0.7391    -0.5604 C.3          1    LIG   0.0000
  16 C16          3.7872     1.9447    -0.0272 C.3          1    LIG   0.0000
  17 C17          3.9433     3.1529    -0.9367 C.3          1    LIG   0.0000
  18 C18          5.3883     3.6236    -0.9104 C.2          1    LIG   0.0000
  19 O19          6.1949     3.0472    -0.2342 O.2          1    LIG   0.0000
  20 N20          5.7700     4.7059    -1.6586 N.am         1    LIG   0.0000
  21 C21          7.1675     5.1611    -1.6331 C.3          1    LIG   0.0000
  22 C22          4.7819     5.4120    -2.4870 C.3          1    LIG   0.0000
  23 C23          2.3616     1.4239    -0.0087 C.ar         1    LIG   0.0000
  24 C24          1.1516     2.1091    -0.0001 C.ar         1    LIG   0.0000
  25 C25         -0.0229     1.3692     0.0107 C.ar         1    LIG   0.0000
  26 Cl26        -1.5701     2.2470     0.0290 Cl           1    LIG   0.0000
  27 C27         -0.0068    -0.0210     0.0114 C.ar         1    LIG   0.0000
  28 C28          1.2207    -0.6727     0.0031 C.ar         1    LIG   0.0000
  29 C29          2.4128     0.0470    -0.0063 C.ar         1    LIG   0.0000
  30 N30          4.1371    -2.0588     2.8378 N.2          1    LIG   0.0000
  31 C31          2.8055    -3.6085     5.8759 C.ar         1    LIG   0.0000
  32 C32          3.0072    -3.6600     7.2509 C.ar         1    LIG   0.0000
  33 H            4.0932     2.1618     0.8997 H            1    LIG   0.0000
  34 H            5.3755    -2.2823    10.6304 H            1    LIG   0.0000
  35 H            6.1652    -2.4800     9.2148 H            1    LIG   0.0000
  36 H            5.1488    -1.2174     9.4134 H            1    LIG   0.0000
  37 H            5.6070    -1.5933     7.4458 H            1    LIG   0.0000
  38 H            5.2493    -1.5131     5.0763 H            1    LIG   0.0000
  39 H            1.7668    -4.0605     3.4145 H            1    LIG   0.0000
  40 H            1.1060    -4.1962     0.8404 H            1    LIG   0.0000
  41 H            4.5244     0.7252    -1.5603 H            1    LIG   0.0000
  42 H            5.4693     0.7156    -0.2285 H            1    LIG   0.0000
  43 H            3.6916     2.9013    -1.8713 H            1    LIG   0.0000
  44 H            3.3469     3.8895    -0.6177 H            1    LIG   0.0000
  45 H            7.2701     5.9558    -2.2314 H            1    LIG   0.0000
  46 H            7.4191     5.4127    -0.6986 H            1    LIG   0.0000
  47 H            7.7639     4.4245    -1.9521 H            1    LIG   0.0000
  48 H            5.2270     6.1707    -2.9627 H            1    LIG   0.0000
  49 H            4.3957     4.7787    -3.1576 H            1    LIG   0.0000
  50 H            4.0510     5.7669    -1.9041 H            1    LIG   0.0000
  51 H            1.1282     3.1089    -0.0017 H            1    LIG   0.0000
  52 H           -0.8608    -0.5412     0.0178 H            1    LIG   0.0000
  53 H            1.2482    -1.6723     0.0039 H            1    LIG   0.0000
  54 H            2.0675    -4.1386     5.4584 H            1    LIG   0.0000
  55 H            2.4178    -4.2255     7.8279 H            1    LIG   0.0000
@<TRIPOS>BOND
   1        1        2 1
   2        2        3 1
   3        3        4 ar
   4        4        5 ar
   5        5        6 ar
   6        6        7 1
   7        7        8 1
   8        8        9 2
   9        9       10 1
  10        9       11 1
  11       11       12 1
  12       12       13 2
  13       12       14 am
  14       14       15 1
  15       15       16 1
  16       16       17 1
  17       17       18 1
  18       18       19 2
  19       18       20 am
  20       20       21 1
  21       20       22 1
  22       16       23 1
  23       23       24 ar
  24       24       25 ar
  25       25       26 1
  26       25       27 ar
  27       27       28 ar
  28       28       29 ar
  29       29       23 ar
  30       29       14 1
  31       11       30 2
  32       30        7 1
  33        6       31 ar
  34       31       32 ar
  35       32        3 ar
  36       16       33 1
  37        1       34 1
  38        1       35 1
  39        1       36 1
  40        4       37 1
  41        5       38 1
  42        8       39 1
  43       10       40 1
  44       15       41 1
  45       15       42 1
  46       17       43 1
  47       17       44 1
  48       21       45 1
  49       21       46 1
  50       21       47 1
  51       22       48 1
  52       22       49 1
  53       22       50 1
  54       24       51 1
  55       27       52 1
  56       28       53 1
  57       31       54 1
  58       32       55 1

@<TRIPOS>MOLECULE

  55   58
SMALL
USER_CHARGES
@<TRIPOS>ATOM
   1 C1          12.6975    -4.6773    -3.3006 C.3          1    LIG   0.0000
   2 O2          11.3683    -4.6610    -3.8000 O.3          1    LIG   0.0000
   3 C3          10.4414    -4.1400    -2.9684 C.ar         1    LIG   0.0000
   4 C4           9.1119    -4.0829    -3.3735 C.ar         1    LIG   0.0000
   5 C5           8.1628    -3.5462    -2.5093 C.ar         1    LIG   0.0000
   6 C6           8.5484    -3.0752    -1.2582 C.ar         1    LIG   0.0000
   7 N7           7.5855    -2.5358    -0.3961 N.pl3        1    LIG   0.0000
   8 C8           7.8432    -2.0433     0.8512 C.2          1    LIG   0.0000
   9 C9           6.6403    -1.6227     1.3395 C.2          1    LIG   0.0000
  10 O10          6.4161    -1.0666     2.5527 O.3          1    LIG   0.0000
  11 C11          5.6594    -1.8782     0.3481 C.2          1    LIG   0.0000
  12 C12          4.2396    -1.6020     0.4224 C.2          1    LIG   0.0000
  13 O13          3.4890    -2.4314     0.8571 O.2          1    LIG   0.0000
  14 N14          3.7430    -0.3680    -0.0126 N.am         1    LIG   0.0000
  15 C15          4.5263     0.7391    -0.5604 C.3          1    LIG   0.0000
  16 C16          3.7872     1.9447    -0.0272 C.3          1    LIG   0.0000
  17 C17          3.9433     3.1529    -0.9367 C.3          1    LIG   0.0000
  18 C18          5.3883     3.6236    -0.9104 C.2          1    LIG   0.0000
  19 O19          6.1949     3.0472    -0.2342 O.2          1    LIG   0.0000
  20 N20          5.7700     4.7059    -1.6586 N.am         1    LIG   0.0000
  21 C21          7.1675     5.1611    -1.6331 C.3          1    LIG   0.0000
  22 C22          4.7819     5.4120    -2.4870 C.3          1    LIG   0.0000
  23 C23          2.3616     1.4239    -0.0087 C.ar         1    LIG   0.0000
  24 C24          1.1516     2.1091    -0.0001 C.ar         1    LIG   0.0000
  25 C25         -0.0229     1.3692     0.0107 C.ar         1    LIG   0.0000
  26 Cl26        -1.5701     2.2470     0.0290 Cl           1    LIG   0.0000
  27 C27         -0.0068    -0.0210     0.0114 C.ar         1    LIG   0.0000
  28 C28          1.2207    -0.6727     0.0031 C.ar         1    LIG   0.0000
  29 C29          2.4128     0.0470    -0.0063 C.ar         1    LIG   0.0000
  30 N30          6.2959    -2.4204    -0.6523 N.2          1    LIG   0.0000
  31 C31          9.8802    -3.1368    -0.8623 C.ar         1    LIG   0.0000
  32 C32         10.8359    -3.6718    -1.7192 C.ar         1    LIG   0.0000
  33 H            4.0932     2.1618     0.8997 H            1    LIG   0.0000
  34 H           13.3058    -5.0792    -3.9850 H            1    LIG   0.0000
  35 H           12.9905    -3.7421    -3.1022 H            1    LIG   0.0000
  36 H           12.7321    -5.2223    -2.4628 H            1    LIG   0.0000
  37 H            8.8418    -4.4232    -4.2741 H            1    LIG   0.0000
  38 H            7.2034    -3.4989    -2.7874 H            1    LIG   0.0000
  39 H            8.7299    -1.9997     1.3115 H            1    LIG   0.0000
  40 H            7.1766    -0.9261     3.1866 H            1    LIG   0.0000
  41 H            4.5244     0.7252    -1.5603 H            1    LIG   0.0000
  42 H            5.4693     0.7156    -0.2285 H            1    LIG   0.0000
  43 H            3.6916     2.9013    -1.8713 H            1    LIG   0.0000
  44 H            3.3469     3.8895    -0.6177 H            1    LIG   0.0000
  45 H            7.2701     5.9558    -2.2314 H            1    LIG   0.0000
  46 H            7.4191     5.4127    -0.6986 H            1    LIG   0.0000
  47 H            7.7639     4.4245    -1.9521 H            1    LIG   0.0000
  48 H            5.2270     6.1707    -2.9627 H            1    LIG   0.0000
  49 H            4.3957     4.7787    -3.1576 H            1    LIG   0.0000
  50 H            4.0510     5.7669    -1.9041 H            1    LIG   0.0000
  51 H            1.1282     3.1089    -0.0017 H            1    LIG   0.0000
  52 H           -0.8608    -0.5412     0.0178 H            1    LIG   0.0000
  53 H            1.2482    -1.6723     0.0039 H            1    LIG   0.0000
  54 H           10.1505    -2.7966     0.0383 H            1    LIG   0.0000
  55 H           11.7952    -3.7193    -1.4409 H            1    LIG   0.0000
@<TRIPOS>BOND
   1        1        2 1
   2        2        3 1
   3        3        4 ar
   4        4        5 ar
   5        5        6 ar
   6        6        7 1
   7        7        8 1
   8        8        9 2
   9        9       10 1
  10        9       11 1
  11       11       12 1
  12       12       13 2
  13       12       14 am
  14       14       15 1
  15       15       16 1
  16       16       17 1
  17       17       18 1
  18       18       19 2
  19       18       20 am
  20       20       21 1
  21       20       22 1
  22       16       23 1
  23       23       24 ar
  24       24       25 ar
  25       25       26 1
  26       25       27 ar
  27       27       28 ar
  28       28       29 ar
  29       29       23 ar
  30       29       14 1
  31       11       30 2
  32       30        7 1
  33        6       31 ar
  34       31       32 ar
  35       32        3 ar
  36       16       33 1
  37        1       34 1
  38        1       35 1
  39        1       36 1
  40        4       37 1
  41        5       38 1
  42        8       39 1
  43       10       40 1
  44       15       41 1
  45       15       42 1
  46       17       43 1
  47       17       44 1
  48       21       45 1
  49       21       46 1
  50       21       47 1
  51       22       48 1
  52       22       49 1
  53       22       50 1
  54       24       51 1
  55       27       52 1
  56       28       53 1
  57       31       54 1
  58       32       55 1

@<TRIPOS>MOLECULE

  55   58
SMALL
USER_CHARGES
@<TRIPOS>ATOM
   1 C1           5.8316    -7.6438    -6.4600 C.3          1    LIG   0.0000
   2 O2           7.0211    -7.1402    -5.8701 O.3          1    LIG   0.0000
   3 C3           6.8425    -6.2570    -4.8651 C.ar         1    LIG   0.0000
   4 C4           5.5521    -5.9063    -4.4820 C.ar         1    LIG   0.0000
   5 C5           5.3771    -4.9967    -3.4439 C.ar         1    LIG   0.0000
   6 C6           6.4848    -4.4504    -2.8034 C.ar         1    LIG   0.0000
   7 N7           6.2980    -3.5348    -1.7603 N.pl3        1    LIG   0.0000
   8 C8           7.3045    -2.9338    -1.0599 C.2          1    LIG   0.0000
   9 C9           6.6902    -2.1267    -0.1470 C.2          1    LIG   0.0000
  10 O10          7.3011    -1.3394     0.7686 O.3          1    LIG   0.0000
  11 C11          5.2900    -2.2636    -0.3236 C.2          1    LIG   0.0000
  12 C12          4.2396    -1.6020     0.4224 C.2          1    LIG   0.0000
  13 O13          3.7951    -2.1120     1.4136 O.2          1    LIG   0.0000
  14 N14          3.7430    -0.3680    -0.0126 N.am         1    LIG   0.0000
  15 C15          4.5263     0.7391    -0.5604 C.3          1    LIG   0.0000
  16 C16          3.7872     1.9447    -0.0272 C.3          1    LIG   0.0000
  17 C17          3.9433     3.1529    -0.9367 C.3          1    LIG   0.0000
  18 C18          5.3883     3.6236    -0.9104 C.2          1    LIG   0.0000
  19 O19          6.1949     3.0472    -0.2342 O.2          1    LIG   0.0000
  20 N20          5.7700     4.7059    -1.6586 N.am         1    LIG   0.0000
  21 C21          7.1675     5.1611    -1.6331 C.3          1    LIG   0.0000
  22 C22          4.7819     5.4120    -2.4870 C.3          1    LIG   0.0000
  23 C23          2.3616     1.4239    -0.0087 C.ar         1    LIG   0.0000
  24 C24          1.1516     2.1091    -0.0001 C.ar         1    LIG   0.0000
  25 C25         -0.0229     1.3692     0.0107 C.ar         1    LIG   0.0000
  26 Cl26        -1.5701     2.2470     0.0290 Cl           1    LIG   0.0000
  27 C27         -0.0068    -0.0210     0.0114 C.ar         1    LIG   0.0000
  28 C28          1.2207    -0.6727     0.0031 C.ar         1    LIG   0.0000
  29 C29          2.4128     0.0470    -0.0063 C.ar         1    LIG   0.0000
  30 N30          5.1349    -3.1154    -1.2984 N.2          1    LIG   0.0000
  31 C31          7.7711    -4.8075    -3.1937 C.ar         1    LIG   0.0000
  32 C32          7.9558    -5.7160    -4.2302 C.ar         1    LIG   0.0000
  33 H            4.0932     2.1618     0.8997 H            1    LIG   0.0000
  34 H            6.0673    -8.2860    -7.1894 H            1    LIG   0.0000
  35 H            5.2879    -8.1139    -5.7648 H            1    LIG   0.0000
  36 H            5.3020    -6.8861    -6.8413 H            1    LIG   0.0000
  37 H            4.7604    -6.3028    -4.9468 H            1    LIG   0.0000
  38 H            4.4551    -4.7356    -3.1580 H            1    LIG   0.0000
  39 H            8.2881    -3.0591    -1.1893 H            1    LIG   0.0000
  40 H            8.2996    -1.3099     0.8160 H            1    LIG   0.0000
  41 H            4.5244     0.7252    -1.5603 H            1    LIG   0.0000
  42 H            5.4693     0.7156    -0.2285 H            1    LIG   0.0000
  43 H            3.6916     2.9013    -1.8713 H            1    LIG   0.0000
  44 H            3.3469     3.8895    -0.6177 H            1    LIG   0.0000
  45 H            7.2701     5.9558    -2.2314 H            1    LIG   0.0000
  46 H            7.4191     5.4127    -0.6986 H            1    LIG   0.0000
  47 H            7.7639     4.4245    -1.9521 H            1    LIG   0.0000
  48 H            5.2270     6.1707    -2.9627 H            1    LIG   0.0000
  49 H            4.3957     4.7787    -3.1576 H            1    LIG   0.0000
  50 H            4.0510     5.7669    -1.9041 H            1    LIG   0.0000
  51 H            1.1282     3.1089    -0.0017 H            1    LIG   0.0000
  52 H           -0.8608    -0.5412     0.0178 H            1    LIG   0.0000
  53 H            1.2482    -1.6723     0.0039 H            1    LIG   0.0000
  54 H            8.5629    -4.4111    -2.7290 H            1    LIG   0.0000
  55 H            8.8779    -5.9773    -4.5157 H            1    LIG   0.0000
@<TRIPOS>BOND
   1        1        2 1
   2        2        3 1
   3        3        4 ar
   4        4        5 ar
   5        5        6 ar
   6        6        7 1
   7        7        8 1
   8        8        9 2
   9        9       10 1
  10        9       11 1
  11       11       12 1
  12       12       13 2
  13       12       14 am
  14       14       15 1
  15       15       16 1
  16       16       17 1
  17       17       18 1
  18       18       19 2
  19       18       20 am
  20       20       21 1
  21       20       22 1
  22       16       23 1
  23       23       24 ar
  24       24       25 ar
  25       25       26 1
  26       25       27 ar
  27       27       28 ar
  28       28       29 ar
  29       29       23 ar
  30       29       14 1
  31       11       30 2
  32       30        7 1
  33        6       31 ar
  34       31       32 ar
  35       32        3 ar
  36       16       33 1
  37        1       34 1
  38        1       35 1
  39        1       36 1
  40        4       37 1
  41        5       38 1
  42        8       39 1
  43       10       40 1
  44       15       41 1
  45       15       42 1
  46       17       43 1
  47       17       44 1
  48       21       45 1
  49       21       46 1
  50       21       47 1
  51       22       48 1
  52       22       49 1
  53       22       50 1
  54       24       51 1
  55       27       52 1
  56       28       53 1
  57       31       54 1
  58       32       55 1

@<TRIPOS>MOLECULE

  55   58
SMALL
USER_CHARGES
@<TRIPOS>ATOM
   1 C1          13.2618    -4.0521    -2.3072 C.3          1    LIG   0.0000
   2 O2          12.7556    -3.1788    -1.3084 O.3          1    LIG   0.0000
   3 C3          11.4102    -3.1023    -1.2311 C.ar         1    LIG   0.0000
   4 C4          10.8243    -2.2714    -0.2817 C.ar         1    LIG   0.0000
   5 C5           9.4369    -2.1970    -0.2102 C.ar         1    LIG   0.0000
   6 C6           8.6541    -2.9479    -1.0814 C.ar         1    LIG   0.0000
   7 N7           7.2583    -2.8668    -1.0006 N.pl3        1    LIG   0.0000
   8 C8           6.3892    -3.5543    -1.7985 C.2          1    LIG   0.0000
   9 C9           5.1403    -3.1880    -1.3882 C.2          1    LIG   0.0000
  10 O10          3.9664    -3.6207    -1.9039 O.3          1    LIG   0.0000
  11 C11          5.2900    -2.2636    -0.3236 C.2          1    LIG   0.0000
  12 C12          4.2396    -1.6020     0.4224 C.2          1    LIG   0.0000
  13 O13          3.7951    -2.1120     1.4136 O.2          1    LIG   0.0000
  14 N14          3.7430    -0.3680    -0.0126 N.am         1    LIG   0.0000
  15 C15          4.5263     0.7391    -0.5604 C.3          1    LIG   0.0000
  16 C16          3.7872     1.9447    -0.0272 C.3          1    LIG   0.0000
  17 C17          3.9433     3.1529    -0.9367 C.3          1    LIG   0.0000
  18 C18          5.3883     3.6236    -0.9104 C.2          1    LIG   0.0000
  19 O19          6.1949     3.0472    -0.2342 O.2          1    LIG   0.0000
  20 N20          5.7700     4.7059    -1.6586 N.am         1    LIG   0.0000
  21 C21          7.1675     5.1611    -1.6331 C.3          1    LIG   0.0000
  22 C22          4.7819     5.4120    -2.4870 C.3          1    LIG   0.0000
  23 C23          2.3616     1.4239    -0.0087 C.ar         1    LIG   0.0000
  24 C24          1.1516     2.1091    -0.0001 C.ar         1    LIG   0.0000
  25 C25         -0.0229     1.3692     0.0107 C.ar         1    LIG   0.0000
  26 Cl26        -1.5701     2.2470     0.0290 Cl           1    LIG   0.0000
  27 C27         -0.0068    -0.0210     0.0114 C.ar         1    LIG   0.0000
  28 C28          1.2207    -0.6727     0.0031 C.ar         1    LIG   0.0000
  29 C29          2.4128     0.0470    -0.0063 C.ar         1    LIG   0.0000
  30 N30          6.5747    -2.1231    -0.1509 N.2          1    LIG   0.0000
  31 C31          9.2492    -3.7757    -2.0273 C.ar         1    LIG   0.0000
  32 C32         10.6353    -3.8564    -2.1064 C.ar         1    LIG   0.0000
  33 H            4.0932     2.1618     0.8997 H            1    LIG   0.0000
  34 H           14.2615    -4.0398    -2.2852 H            1    LIG   0.0000
  35 H           12.9360    -4.9815    -2.1336 H            1    LIG   0.0000
  36 H           12.9444    -3.7501    -3.2061 H            1    LIG   0.0000
  37 H           11.3931    -1.7344     0.3414 H            1    LIG   0.0000
  38 H            9.0023    -1.6037     0.4674 H            1    LIG   0.0000
  39 H            6.6201    -4.1938    -2.5317 H            1    LIG   0.0000
  40 H            3.9634    -4.2772    -2.6583 H            1    LIG   0.0000
  41 H            4.5244     0.7252    -1.5603 H            1    LIG   0.0000
  42 H            5.4693     0.7156    -0.2285 H            1    LIG   0.0000
  43 H            3.6916     2.9013    -1.8713 H            1    LIG   0.0000
  44 H            3.3469     3.8895    -0.6177 H            1    LIG   0.0000
  45 H            7.2701     5.9558    -2.2314 H            1    LIG   0.0000
  46 H            7.4191     5.4127    -0.6986 H            1    LIG   0.0000
  47 H            7.7639     4.4245    -1.9521 H            1    LIG   0.0000
  48 H            5.2270     6.1707    -2.9627 H            1    LIG   0.0000
  49 H            4.3957     4.7787    -3.1576 H            1    LIG   0.0000
  50 H            4.0510     5.7669    -1.9041 H            1    LIG   0.0000
  51 H            1.1282     3.1089    -0.0017 H            1    LIG   0.0000
  52 H           -0.8608    -0.5412     0.0178 H            1    LIG   0.0000
  53 H            1.2482    -1.6723     0.0039 H            1    LIG   0.0000
  54 H            8.6806    -4.3127    -2.6505 H            1    LIG   0.0000
  55 H           11.0698    -4.4494    -2.7843 H            1    LIG   0.0000
@<TRIPOS>BOND
   1        1        2 1
   2        2        3 1
   3        3        4 ar
   4        4        5 ar
   5        5        6 ar
   6        6        7 1
   7        7        8 1
   8        8        9 2
   9        9       10 1
  10        9       11 1
  11       11       12 1
  12       12       13 2
  13       12       14 am
  14       14       15 1
  15       15       16 1
  16       16       17 1
  17       17       18 1
  18       18       19 2
  19       18       20 am
  20       20       21 1
  21       20       22 1
  22       16       23 1
  23       23       24 ar
  24       24       25 ar
  25       25       26 1
  26       25       27 ar
  27       27       28 ar
  28       28       29 ar
  29       29       23 ar
  30       29       14 1
  31       11       30 2
  32       30        7 1
  33        6       31 ar
  34       31       32 ar
  35       32        3 ar
  36       16       33 1
  37        1       34 1
  38        1       35 1
  39        1       36 1
  40        4       37 1
  41        5       38 1
  42        8       39 1
  43       10       40 1
  44       15       41 1
  45       15       42 1
  46       17       43 1
  47       17       44 1
  48       21       45 1
  49       21       46 1
  50       21       47 1
  51       22       48 1
  52       22       49 1
  53       22       50 1
  54       24       51 1
  55       27       52 1
  56       28       53 1
  57       31       54 1
  58       32       55 1

@<TRIPOS>MOLECULE

  55   58
SMALL
USER_CHARGES
@<TRIPOS>ATOM
   1 C1          -2.0283    -0.4921     7.2398 C.3          1    LIG   0.0000
   2 O2          -1.2685    -1.6858     7.3588 O.3          1    LIG   0.0000
   3 C3          -0.3414    -1.8828     6.3977 C.ar         1    LIG   0.0000
   4 C4          -0.1918    -0.9398     5.3861 C.ar         1    LIG   0.0000
   5 C5           0.7675    -1.1498     4.4005 C.ar         1    LIG   0.0000
   6 C6           1.5620    -2.2914     4.4349 C.ar         1    LIG   0.0000
   7 N7           2.5240    -2.4940     3.4375 N.pl3        1    LIG   0.0000
   8 C8           3.3586    -3.5725     3.3659 C.2          1    LIG   0.0000
   9 C9           4.1254    -3.3747     2.2546 C.2          1    LIG   0.0000
  10 O10          5.0992    -4.1940     1.7944 O.3          1    LIG   0.0000
  11 C11          3.7238    -2.1487     1.6663 C.2          1    LIG   0.0000
  12 C12          4.2592    -1.5279     0.4722 C.2          1    LIG   0.0000
  13 O13          5.1458    -2.0615    -0.1354 O.2          1    LIG   0.0000
  14 N14          3.7426    -0.3063     0.0273 N.am         1    LIG   0.0000
  15 C15          4.5355     0.8070    -0.4889 C.3          1    LIG   0.0000
  16 C16          3.7517     1.9928     0.0250 C.3          1    LIG   0.0000
  17 C17          3.8939     3.1298    -0.9740 C.3          1    LIG   0.0000
  18 C18          5.3211     3.6521    -0.9475 C.2          1    LIG   0.0000
  19 O19          6.1264     3.1600    -0.2063 O.2          1    LIG   0.0000
  20 N20          5.6882     4.6845    -1.7699 N.am         1    LIG   0.0000
  21 C21          7.0684     5.1896    -1.7442 C.3          1    LIG   0.0000
  22 C22          4.7017     5.2872    -2.6779 C.3          1    LIG   0.0000
  23 C23          2.3419     1.4469     0.0265 C.ar         1    LIG   0.0000
  24 C24          1.1308     2.1255     0.0286 C.ar         1    LIG   0.0000
  25 C25         -0.0285     1.3639     0.0217 C.ar         1    LIG   0.0000
  26 Cl26        -1.5701     2.2470     0.0290 Cl           1    LIG   0.0000
  27 C27         -0.0079    -0.0255     0.0118 C.ar         1    LIG   0.0000
  28 C28          1.2248    -0.6669     0.0135 C.ar         1    LIG   0.0000
  29 C29          2.4035     0.0724     0.0238 C.ar         1    LIG   0.0000
  30 N30          2.7698    -1.6847     2.4243 N.2          1    LIG   0.0000
  31 C31          1.4048    -3.2284     5.4506 C.ar         1    LIG   0.0000
  32 C32          0.4487    -3.0270     6.4401 C.ar         1    LIG   0.0000
  33 H            4.0462     2.2641     0.9413 H            1    LIG   0.0000
  34 H           -2.6835    -0.4375     7.9934 H            1    LIG   0.0000
  35 H           -1.4158     0.2976     7.2728 H            1    LIG   0.0000
  36 H           -2.5209    -0.4959     6.3695 H            1    LIG   0.0000
  37 H           -0.7663    -0.1215     5.3675 H            1    LIG   0.0000
  38 H            0.8860    -0.4801     3.6674 H            1    LIG   0.0000
  39 H            3.3994    -4.3469     3.9972 H            1    LIG   0.0000
  40 H            5.3108    -5.0416     2.2810 H            1    LIG   0.0000
  41 H            4.5721     0.7978    -1.4882 H            1    LIG   0.0000
  42 H            5.4653     0.7956    -0.1211 H            1    LIG   0.0000
  43 H            3.6780     2.7962    -1.8917 H            1    LIG   0.0000
  44 H            3.2644     3.8678    -0.7310 H            1    LIG   0.0000
  45 H            7.1620     5.9375    -2.4014 H            1    LIG   0.0000
  46 H            7.2843     5.5232    -0.8265 H            1    LIG   0.0000
  47 H            7.6980     4.4516    -1.9873 H            1    LIG   0.0000
  48 H            5.1349     6.0212    -3.2010 H            1    LIG   0.0000
  49 H            4.3564     4.5895    -3.3055 H            1    LIG   0.0000
  50 H            3.9427     5.6611    -2.1448 H            1    LIG   0.0000
  51 H            1.0955     3.1249     0.0348 H            1    LIG   0.0000
  52 H           -0.8589    -0.5506     0.0037 H            1    LIG   0.0000
  53 H            1.2650    -1.6661     0.0073 H            1    LIG   0.0000
  54 H            1.9792    -4.0468     5.4693 H            1    LIG   0.0000
  55 H            0.3306    -3.6965     7.1734 H            1    LIG   0.0000
@<TRIPOS>BOND
   1        1        2 1
   2        2        3 1
   3        3        4 ar
   4        4        5 ar
   5        5        6 ar
   6        6        7 1
   7        7        8 1
   8        8        9 2
   9        9       10 1
  10        9       11 1
  11       11       12 1
  12       12       13 2
  13       12       14 am
  14       14       15 1
  15       15       16 1
  16       16       17 1
  17       17       18 1
  18       18       19 2
  19       18       20 am
  20       20       21 1
  21       20       22 1
  22       16       23 1
  23       23       24 ar
  24       24       25 ar
  25       25       26 1
  26       25       27 ar
  27       27       28 ar
  28       28       29 ar
  29       29       23 ar
  30       29       14 1
  31       11       30 2
  32       30        7 1
  33        6       31 ar
  34       31       32 ar
  35       32        3 ar
  36       16       33 1
  37        1       34 1
  38        1       35 1
  39        1       36 1
  40        4       37 1
  41        5       38 1
  42        8       39 1
  43       10       40 1
  44       15       41 1
  45       15       42 1
  46       17       43 1
  47       17       44 1
  48       21       45 1
  49       21       46 1
  50       21       47 1
  51       22       48 1
  52       22       49 1
  53       22       50 1
  54       24       51 1
  55       27       52 1
  56       28       53 1
  57       31       54 1
  58       32       55 1

@<TRIPOS>MOLECULE

  55   58
SMALL
USER_CHARGES
@<TRIPOS>ATOM
   1 C1           7.7965    -1.1492     9.0600 C.3          1    LIG   0.0000
   2 O2           8.7866    -1.2895     8.0518 O.3          1    LIG   0.0000
   3 C3           8.3223    -1.3504     6.7858 C.ar         1    LIG   0.0000
   4 C4           6.9529    -1.2749     6.5536 C.ar         1    LIG   0.0000
   5 C5           6.4831    -1.3365     5.2455 C.ar         1    LIG   0.0000
   6 C6           7.3794    -1.4720     4.1900 C.ar         1    LIG   0.0000
   7 N7           6.8963    -1.5342     2.8769 N.pl3        1    LIG   0.0000
   8 C8           7.6763    -1.6668     1.7639 C.2          1    LIG   0.0000
   9 C9           6.8136    -1.6853     0.7068 C.2          1    LIG   0.0000
  10 O10          7.1470    -1.7967    -0.6001 O.3          1    LIG   0.0000
  11 C11          5.4983    -1.5604     1.2213 C.2          1    LIG   0.0000
  12 C12          4.2592    -1.5279     0.4722 C.2          1    LIG   0.0000
  13 O13          3.6755    -2.5488     0.2333 O.2          1    LIG   0.0000
  14 N14          3.7426    -0.3063     0.0273 N.am         1    LIG   0.0000
  15 C15          4.5355     0.8070    -0.4889 C.3          1    LIG   0.0000
  16 C16          3.7517     1.9928     0.0250 C.3          1    LIG   0.0000
  17 C17          3.8939     3.1298    -0.9740 C.3          1    LIG   0.0000
  18 C18          5.3211     3.6521    -0.9475 C.2          1    LIG   0.0000
  19 O19          6.1264     3.1600    -0.2063 O.2          1    LIG   0.0000
  20 N20          5.6882     4.6845    -1.7699 N.am         1    LIG   0.0000
  21 C21          7.0684     5.1896    -1.7442 C.3          1    LIG   0.0000
  22 C22          4.7017     5.2872    -2.6779 C.3          1    LIG   0.0000
  23 C23          2.3419     1.4469     0.0265 C.ar         1    LIG   0.0000
  24 C24          1.1308     2.1255     0.0286 C.ar         1    LIG   0.0000
  25 C25         -0.0285     1.3639     0.0217 C.ar         1    LIG   0.0000
  26 Cl26        -1.5701     2.2470     0.0290 Cl           1    LIG   0.0000
  27 C27         -0.0079    -0.0255     0.0118 C.ar         1    LIG   0.0000
  28 C28          1.2248    -0.6669     0.0135 C.ar         1    LIG   0.0000
  29 C29          2.4035     0.0724     0.0238 C.ar         1    LIG   0.0000
  30 N30          5.6281    -1.4757     2.5159 N.2          1    LIG   0.0000
  31 C31          8.7469    -1.5465     4.4324 C.ar         1    LIG   0.0000
  32 C32          9.2257    -1.4856     5.7366 C.ar         1    LIG   0.0000
  33 H            4.0462     2.2641     0.9413 H            1    LIG   0.0000
  34 H            8.2370    -1.1135     9.9570 H            1    LIG   0.0000
  35 H            7.2825    -0.3051     8.9072 H            1    LIG   0.0000
  36 H            7.1729    -1.9301     9.0256 H            1    LIG   0.0000
  37 H            6.3144    -1.1776     7.3170 H            1    LIG   0.0000
  38 H            5.5012    -1.2834     5.0639 H            1    LIG   0.0000
  39 H            8.6733    -1.7360     1.7305 H            1    LIG   0.0000
  40 H            8.1075    -1.8804    -0.8657 H            1    LIG   0.0000
  41 H            4.5721     0.7978    -1.4882 H            1    LIG   0.0000
  42 H            5.4653     0.7956    -0.1211 H            1    LIG   0.0000
  43 H            3.6780     2.7962    -1.8917 H            1    LIG   0.0000
  44 H            3.2644     3.8678    -0.7310 H            1    LIG   0.0000
  45 H            7.1620     5.9375    -2.4014 H            1    LIG   0.0000
  46 H            7.2843     5.5232    -0.8265 H            1    LIG   0.0000
  47 H            7.6980     4.4516    -1.9873 H            1    LIG   0.0000
  48 H            5.1349     6.0212    -3.2010 H            1    LIG   0.0000
  49 H            4.3564     4.5895    -3.3055 H            1    LIG   0.0000
  50 H            3.9427     5.6611    -2.1448 H            1    LIG   0.0000
  51 H            1.0955     3.1249     0.0348 H            1    LIG   0.0000
  52 H           -0.8589    -0.5506     0.0037 H            1    LIG   0.0000
  53 H            1.2650    -1.6661     0.0073 H            1    LIG   0.0000
  54 H            9.3855    -1.6438     3.6691 H            1    LIG   0.0000
  55 H           10.2077    -1.5383     5.9180 H            1    LIG   0.0000
@<TRIPOS>BOND
   1        1        2 1
   2        2        3 1
   3        3        4 ar
   4        4        5 ar
   5        5        6 ar
   6        6        7 1
   7        7        8 1
   8        8        9 2
   9        9       10 1
  10        9       11 1
  11       11       12 1
  12       12       13 2
  13       12       14 am
  14       14       15 1
  15       15       16 1
  16       16       17 1
  17       17       18 1
  18       18       19 2
  19       18       20 am
  20       20       21 1
  21       20       22 1
  22       16       23 1
  23       23       24 ar
  24       24       25 ar
  25       25       26 1
  26       25       27 ar
  27       27       28 ar
  28       28       29 ar
  29       29       23 ar
  30       29       14 1
  31       11       30 2
  32       30        7 1
  33        6       31 ar
  34       31       32 ar
  35       32        3 ar
  36       16       33 1
  37        1       34 1
  38        1       35 1
  39        1       36 1
  40        4       37 1
  41        5       38 1
  42        8       39 1
  43       10       40 1
  44       15       41 1
  45       15       42 1
  46       17       43 1
  47       17       44 1
  48       21       45 1
  49       21       46 1
  50       21       47 1
  51       22       48 1
  52       22       49 1
  53       22       50 1
  54       24       51 1
  55       27       52 1
  56       28       53 1
  57       31       54 1
  58       32       55 1

@<TRIPOS>MOLECULE

  55   58
SMALL
USER_CHARGES
@<TRIPOS>ATOM
   1 C1           9.7540    -0.6890    -6.9782 C.3          1    LIG   0.0000
   2 O2           9.9989    -1.8718    -6.2316 O.3          1    LIG   0.0000
   3 C3           9.2259    -2.0391    -5.1377 C.ar         1    LIG   0.0000
   4 C4           8.2714    -1.0786    -4.8195 C.ar         1    LIG   0.0000
   5 C5           7.4776    -1.2599    -3.6914 C.ar         1    LIG   0.0000
   6 C6           7.6440    -2.3907    -2.8981 C.ar         1    LIG   0.0000
   7 N7           6.8406    -2.5634    -1.7640 N.pl3        1    LIG   0.0000
   8 C8           6.9122    -3.6280    -0.9118 C.2          1    LIG   0.0000
   9 C9           5.9659    -3.4013     0.0449 C.2          1    LIG   0.0000
  10 O10          5.6779    -4.2038     1.0958 O.3          1    LIG   0.0000
  11 C11          5.3293    -2.1719    -0.2611 C.2          1    LIG   0.0000
  12 C12          4.2592    -1.5279     0.4722 C.2          1    LIG   0.0000
  13 O13          3.8156    -2.0422     1.4615 O.2          1    LIG   0.0000
  14 N14          3.7426    -0.3063     0.0273 N.am         1    LIG   0.0000
  15 C15          4.5355     0.8070    -0.4889 C.3          1    LIG   0.0000
  16 C16          3.7517     1.9928     0.0250 C.3          1    LIG   0.0000
  17 C17          3.8939     3.1298    -0.9740 C.3          1    LIG   0.0000
  18 C18          5.3211     3.6521    -0.9475 C.2          1    LIG   0.0000
  19 O19          6.1264     3.1600    -0.2063 O.2          1    LIG   0.0000
  20 N20          5.6882     4.6845    -1.7699 N.am         1    LIG   0.0000
  21 C21          7.0684     5.1896    -1.7442 C.3          1    LIG   0.0000
  22 C22          4.7017     5.2872    -2.6779 C.3          1    LIG   0.0000
  23 C23          2.3419     1.4469     0.0265 C.ar         1    LIG   0.0000
  24 C24          1.1308     2.1255     0.0286 C.ar         1    LIG   0.0000
  25 C25         -0.0285     1.3639     0.0217 C.ar         1    LIG   0.0000
  26 Cl26        -1.5701     2.2470     0.0290 Cl           1    LIG   0.0000
  27 C27         -0.0079    -0.0255     0.0118 C.ar         1    LIG   0.0000
  28 C28          1.2248    -0.6669     0.0135 C.ar         1    LIG   0.0000
  29 C29          2.4035     0.0724     0.0238 C.ar         1    LIG   0.0000
  30 N30          5.9020    -1.7342    -1.3476 N.2          1    LIG   0.0000
  31 C31          8.6010    -3.3455    -3.2247 C.ar         1    LIG   0.0000
  32 C32          9.3990    -3.1729    -4.3505 C.ar         1    LIG   0.0000
  33 H            4.0462     2.2641     0.9413 H            1    LIG   0.0000
  34 H           10.3723    -0.6564    -7.7635 H            1    LIG   0.0000
  35 H            8.8070    -0.6876    -7.2993 H            1    LIG   0.0000
  36 H            9.9103     0.1101    -6.3975 H            1    LIG   0.0000
  37 H            8.1573    -0.2681    -5.3942 H            1    LIG   0.0000
  38 H            6.7875    -0.5775    -3.4507 H            1    LIG   0.0000
  39 H            7.5301    -4.4116    -0.9756 H            1    LIG   0.0000
  40 H            6.1848    -5.0556     1.2281 H            1    LIG   0.0000
  41 H            4.5721     0.7978    -1.4882 H            1    LIG   0.0000
  42 H            5.4653     0.7956    -0.1211 H            1    LIG   0.0000
  43 H            3.6780     2.7962    -1.8917 H            1    LIG   0.0000
  44 H            3.2644     3.8678    -0.7310 H            1    LIG   0.0000
  45 H            7.1620     5.9375    -2.4014 H            1    LIG   0.0000
  46 H            7.2843     5.5232    -0.8265 H            1    LIG   0.0000
  47 H            7.6980     4.4516    -1.9873 H            1    LIG   0.0000
  48 H            5.1349     6.0212    -3.2010 H            1    LIG   0.0000
  49 H            4.3564     4.5895    -3.3055 H            1    LIG   0.0000
  50 H            3.9427     5.6611    -2.1448 H            1    LIG   0.0000
  51 H            1.0955     3.1249     0.0348 H            1    LIG   0.0000
  52 H           -0.8589    -0.5506     0.0037 H            1    LIG   0.0000
  53 H            1.2650    -1.6661     0.0073 H            1    LIG   0.0000
  54 H            8.7153    -4.1560    -2.6501 H            1    LIG   0.0000
  55 H           10.0889    -3.8556    -4.5912 H            1    LIG   0.0000
@<TRIPOS>BOND
   1        1        2 1
   2        2        3 1
   3        3        4 ar
   4        4        5 ar
   5        5        6 ar
   6        6        7 1
   7        7        8 1
   8        8        9 2
   9        9       10 1
  10        9       11 1
  11       11       12 1
  12       12       13 2
  13       12       14 am
  14       14       15 1
  15       15       16 1
  16       16       17 1
  17       17       18 1
  18       18       19 2
  19       18       20 am
  20       20       21 1
  21       20       22 1
  22       16       23 1
  23       23       24 ar
  24       24       25 ar
  25       25       26 1
  26       25       27 ar
  27       27       28 ar
  28       28       29 ar
  29       29       23 ar
  30       29       14 1
  31       11       30 2
  32       30        7 1
  33        6       31 ar
  34       31       32 ar
  35       32        3 ar
  36       16       33 1
  37        1       34 1
  38        1       35 1
  39        1       36 1
  40        4       37 1
  41        5       38 1
  42        8       39 1
  43       10       40 1
  44       15       41 1
  45       15       42 1
  46       17       43 1
  47       17       44 1
  48       21       45 1
  49       21       46 1
  50       21       47 1
  51       22       48 1
  52       22       49 1
  53       22       50 1
  54       24       51 1
  55       27       52 1
  56       28       53 1
  57       31       54 1
  58       32       55 1

