@<TRIPOS>MOLECULE
*****
 55 58 0 0 0
SMALL
USER_CHARGES

@<TRIPOS>ATOM
      1 C1         -0.9853   -6.5603    6.9776 C.3     1  LIG1        0.0000
      2 O2         -0.1113   -5.4457    7.0783 O.2     1  LIG1        0.0000
      3 C3          0.4397   -5.0325    5.9174 C.3     1  LIG1        0.0000
      4 C4          1.3093   -3.9468    5.9195 C.3     1  LIG1        0.0000
      5 C5          1.8741   -3.5288    4.7188 C.3     1  LIG1        0.0000
      6 C6          1.5669   -4.1945    3.5364 C.3     1  LIG1        0.0000
      7 N7          2.1400   -3.7652    2.3327 N.pl3   1  LIG1        0.0000
      8 C8          1.9141   -4.3369    1.1134 C.2     1  LIG1        0.0000
      9 C9          2.6586   -3.6185    0.2235 C.2     1  LIG1        0.0000
     10 O10         2.7460   -3.8346   -1.1095 O.2     1  LIG1        0.0000
     11 C11         3.3337   -2.6030    0.9470 C.2     1  LIG1        0.0000
     12 C12         4.2396   -1.6020    0.4224 C.2     1  LIG1        0.0000
     13 O13         5.4160   -1.8308    0.3608 O.2     1  LIG1        0.0000
     14 N14         3.7430   -0.3680   -0.0126 N.am    1  LIG1        0.0000
     15 C15         4.5263    0.7391   -0.5604 C.3     1  LIG1        0.0000
     16 C16         3.7872    1.9447   -0.0272 C.3     1  LIG1        0.0000
     17 C17         3.9433    3.1529   -0.9367 C.3     1  LIG1        0.0000
     18 C18         5.3883    3.6236   -0.9104 C.2     1  LIG1        0.0000
     19 O19         6.1949    3.0472   -0.2342 O.2     1  LIG1        0.0000
     20 N20         5.7700    4.7059   -1.6586 N.am    1  LIG1        0.0000
     21 C21         7.1675    5.1611   -1.6331 C.3     1  LIG1        0.0000
     22 C22         4.7819    5.4120   -2.4870 C.3     1  LIG1        0.0000
     23 C23         2.3616    1.4239   -0.0087 C.3     1  LIG1        0.0000
     24 C24         1.1516    2.1091   -0.0001 C.3     1  LIG1        0.0000
     25 C25        -0.0229    1.3692    0.0107 C.3     1  LIG1        0.0000
     26 Cl26       -1.5701    2.2470    0.0290 Cl      1  LIG1        0.0000
     27 C27        -0.0068   -0.0210    0.0114 C.3     1  LIG1        0.0000
     28 C28         1.2207   -0.6727    0.0031 C.3     1  LIG1        0.0000
     29 C29         2.4128    0.0470   -0.0063 C.3     1  LIG1        0.0000
     30 N30         2.9761   -2.7537    2.1917 N.2     1  LIG1        0.0000
     31 C31         0.6964   -5.2791    3.5445 C.3     1  LIG1        0.0000
     32 C32         0.1271   -5.7043    4.7400 C.3     1  LIG1        0.0000
     33 H           4.0932    2.1618    0.8997 H       1  LIG1        0.0000
     34 H          -1.3400   -6.7888    7.8842 H       1  LIG1        0.0000
     35 H          -1.7461   -6.3334    6.3695 H       1  LIG1        0.0000
     36 H          -0.4854   -7.3436    6.6081 H       1  LIG1        0.0000
     37 H           1.5256   -3.4729    6.7731 H       1  LIG1        0.0000
     38 H           2.5010   -2.7498    4.7056 H       1  LIG1        0.0000
     39 H           1.3251   -5.1199    0.9137 H       1  LIG1        0.0000
     40 H           2.2289   -4.5800   -1.5302 H       1  LIG1        0.0000
     41 H           4.5244    0.7252   -1.5603 H       1  LIG1        0.0000
     42 H           5.4693    0.7156   -0.2285 H       1  LIG1        0.0000
     43 H           3.6916    2.9013   -1.8713 H       1  LIG1        0.0000
     44 H           3.3469    3.8895   -0.6177 H       1  LIG1        0.0000
     45 H           7.2701    5.9558   -2.2314 H       1  LIG1        0.0000
     46 H           7.4191    5.4127   -0.6986 H       1  LIG1        0.0000
     47 H           7.7639    4.4245   -1.9521 H       1  LIG1        0.0000
     48 H           5.2270    6.1707   -2.9627 H       1  LIG1        0.0000
     49 H           4.3957    4.7787   -3.1576 H       1  LIG1        0.0000
     50 H           4.0510    5.7669   -1.9041 H       1  LIG1        0.0000
     51 H           1.1282    3.1089   -0.0017 H       1  LIG1        0.0000
     52 H          -0.8608   -0.5412    0.0178 H       1  LIG1        0.0000
     53 H           1.2482   -1.6723    0.0039 H       1  LIG1        0.0000
     54 H           0.4799   -5.7531    2.6910 H       1  LIG1        0.0000
     55 H          -0.4995   -6.4835    4.7531 H       1  LIG1        0.0000
@<TRIPOS>BOND
     1     1     2    1
     2     2     3    1
     3     3     4   ar
     4     4     5   ar
     5     5     6   ar
     6     6     7    1
     7     7     8    1
     8     8     9    2
     9     9    10    1
    10     9    11    1
    11    11    12    1
    12    12    13    2
    13    12    14   am
    14    14    15    1
    15    15    16    1
    16    16    17    1
    17    17    18    1
    18    18    19    2
    19    18    20   am
    20    20    21    1
    21    20    22    1
    22    16    23    1
    23    23    24   ar
    24    24    25   ar
    25    25    26    1
    26    25    27   ar
    27    27    28   ar
    28    28    29   ar
    29    29    23   ar
    30    29    14    1
    31    11    30    2
    32    30     7    1
    33     6    31   ar
    34    31    32   ar
    35    32     3   ar
    36    16    33    1
    37     1    34    1
    38     1    35    1
    39     1    36    1
    40     4    37    1
    41     5    38    1
    42     8    39    1
    43    10    40    1
    44    15    41    1
    45    15    42    1
    46    17    43    1
    47    17    44    1
    48    21    45    1
    49    21    46    1
    50    21    47    1
    51    22    48    1
    52    22    49    1
    53    22    50    1
    54    24    51    1
    55    27    52    1
    56    28    53    1
    57    31    54    1
    58    32    55    1
