@<TRIPOS>MOLECULE
*****
 55 58 0 0 0
SMALL
USER_CHARGES

@<TRIPOS>ATOM
      1 C1         -2.0283   -0.4921    7.2398 C.3     1  LIG1        0.0000
      2 O2         -1.2685   -1.6858    7.3588 O.2     1  LIG1        0.0000
      3 C3         -0.3414   -1.8828    6.3977 C.3     1  LIG1        0.0000
      4 C4         -0.1918   -0.9398    5.3861 C.3     1  LIG1        0.0000
      5 C5          0.7675   -1.1498    4.4005 C.3     1  LIG1        0.0000
      6 C6          1.5620   -2.2914    4.4349 C.3     1  LIG1        0.0000
      7 N7          2.5240   -2.4940    3.4375 N.pl3   1  LIG1        0.0000
      8 C8          3.3586   -3.5725    3.3659 C.2     1  LIG1        0.0000
      9 C9          4.1254   -3.3747    2.2546 C.2     1  LIG1        0.0000
     10 O10         5.0992   -4.1940    1.7944 O.2     1  LIG1        0.0000
     11 C11         3.7238   -2.1487    1.6663 C.2     1  LIG1        0.0000
     12 C12         4.2592   -1.5279    0.4722 C.2     1  LIG1        0.0000
     13 O13         5.1458   -2.0615   -0.1354 O.2     1  LIG1        0.0000
     14 N14         3.7426   -0.3063    0.0273 N.am    1  LIG1        0.0000
     15 C15         4.5355    0.8070   -0.4889 C.3     1  LIG1        0.0000
     16 C16         3.7517    1.9928    0.0250 C.3     1  LIG1        0.0000
     17 C17         3.8939    3.1298   -0.9740 C.3     1  LIG1        0.0000
     18 C18         5.3211    3.6521   -0.9475 C.2     1  LIG1        0.0000
     19 O19         6.1264    3.1600   -0.2063 O.2     1  LIG1        0.0000
     20 N20         5.6882    4.6845   -1.7699 N.am    1  LIG1        0.0000
     21 C21         7.0684    5.1896   -1.7442 C.3     1  LIG1        0.0000
     22 C22         4.7017    5.2872   -2.6779 C.3     1  LIG1        0.0000
     23 C23         2.3419    1.4469    0.0265 C.3     1  LIG1        0.0000
     24 C24         1.1308    2.1255    0.0286 C.3     1  LIG1        0.0000
     25 C25        -0.0285    1.3639    0.0217 C.3     1  LIG1        0.0000
     26 Cl26       -1.5701    2.2470    0.0290 Cl      1  LIG1        0.0000
     27 C27        -0.0079   -0.0255    0.0118 C.3     1  LIG1        0.0000
     28 C28         1.2248   -0.6669    0.0135 C.3     1  LIG1        0.0000
     29 C29         2.4035    0.0724    0.0238 C.3     1  LIG1        0.0000
     30 N30         2.7698   -1.6847    2.4243 N.2     1  LIG1        0.0000
     31 C31         1.4048   -3.2284    5.4506 C.3     1  LIG1        0.0000
     32 C32         0.4487   -3.0270    6.4401 C.3     1  LIG1        0.0000
     33 H           4.0462    2.2641    0.9413 H       1  LIG1        0.0000
     34 H          -2.6835   -0.4375    7.9934 H       1  LIG1        0.0000
     35 H          -1.4158    0.2976    7.2728 H       1  LIG1        0.0000
     36 H          -2.5209   -0.4959    6.3695 H       1  LIG1        0.0000
     37 H          -0.7663   -0.1215    5.3675 H       1  LIG1        0.0000
     38 H           0.8860   -0.4801    3.6674 H       1  LIG1        0.0000
     39 H           3.3994   -4.3469    3.9972 H       1  LIG1        0.0000
     40 H           5.3108   -5.0416    2.2810 H       1  LIG1        0.0000
     41 H           4.5721    0.7978   -1.4882 H       1  LIG1        0.0000
     42 H           5.4653    0.7956   -0.1211 H       1  LIG1        0.0000
     43 H           3.6780    2.7962   -1.8917 H       1  LIG1        0.0000
     44 H           3.2644    3.8678   -0.7310 H       1  LIG1        0.0000
     45 H           7.1620    5.9375   -2.4014 H       1  LIG1        0.0000
     46 H           7.2843    5.5232   -0.8265 H       1  LIG1        0.0000
     47 H           7.6980    4.4516   -1.9873 H       1  LIG1        0.0000
     48 H           5.1349    6.0212   -3.2010 H       1  LIG1        0.0000
     49 H           4.3564    4.5895   -3.3055 H       1  LIG1        0.0000
     50 H           3.9427    5.6611   -2.1448 H       1  LIG1        0.0000
     51 H           1.0955    3.1249    0.0348 H       1  LIG1        0.0000
     52 H          -0.8589   -0.5506    0.0037 H       1  LIG1        0.0000
     53 H           1.2650   -1.6661    0.0073 H       1  LIG1        0.0000
     54 H           1.9792   -4.0468    5.4693 H       1  LIG1        0.0000
     55 H           0.3306   -3.6965    7.1734 H       1  LIG1        0.0000
@<TRIPOS>BOND
     1     1     2    1
     2     2     3    1
     3     3     4   ar
     4     4     5   ar
     5     5     6   ar
     6     6     7    1
     7     7     8    1
     8     8     9    2
     9     9    10    1
    10     9    11    1
    11    11    12    1
    12    12    13    2
    13    12    14   am
    14    14    15    1
    15    15    16    1
    16    16    17    1
    17    17    18    1
    18    18    19    2
    19    18    20   am
    20    20    21    1
    21    20    22    1
    22    16    23    1
    23    23    24   ar
    24    24    25   ar
    25    25    26    1
    26    25    27   ar
    27    27    28   ar
    28    28    29   ar
    29    29    23   ar
    30    29    14    1
    31    11    30    2
    32    30     7    1
    33     6    31   ar
    34    31    32   ar
    35    32     3   ar
    36    16    33    1
    37     1    34    1
    38     1    35    1
    39     1    36    1
    40     4    37    1
    41     5    38    1
    42     8    39    1
    43    10    40    1
    44    15    41    1
    45    15    42    1
    46    17    43    1
    47    17    44    1
    48    21    45    1
    49    21    46    1
    50    21    47    1
    51    22    48    1
    52    22    49    1
    53    22    50    1
    54    24    51    1
    55    27    52    1
    56    28    53    1
    57    31    54    1
    58    32    55    1
