@<TRIPOS>MOLECULE
*****
 55 58 0 0 0
SMALL
USER_CHARGES

@<TRIPOS>ATOM
      1 C1         12.8133   -4.4318    3.2688 C.3     1  LIG1        0.0000
      2 O2         11.4884   -4.4314    3.7796 O.2     1  LIG1        0.0000
      3 C3         10.5444   -3.9457    2.9459 C.3     1  LIG1        0.0000
      4 C4          9.2175   -3.9063    3.3614 C.3     1  LIG1        0.0000
      5 C5          8.2513   -3.4023    2.4965 C.3     1  LIG1        0.0000
      6 C6          8.6175   -2.9460    1.2342 C.3     1  LIG1        0.0000
      7 N7          7.6371   -2.4415    0.3706 N.pl3   1  LIG1        0.0000
      8 C8          7.8748   -1.9676   -0.8878 C.2     1  LIG1        0.0000
      9 C9          6.6599   -1.5801   -1.3736 C.2     1  LIG1        0.0000
     10 O10         6.4163   -1.0417   -2.5910 O.2     1  LIG1        0.0000
     11 C11         5.6922   -1.8370   -0.3696 C.2     1  LIG1        0.0000
     12 C12         4.2676   -1.5839   -0.4344 C.2     1  LIG1        0.0000
     13 O13         3.5261   -2.4306   -0.8505 O.2     1  LIG1        0.0000
     14 N14         3.7576   -0.3558   -0.0130 N.am    1  LIG1        0.0000
     15 C15         4.5531    0.7510    0.5057 C.3     1  LIG1        0.0000
     16 C16         3.7896    1.9437   -0.0276 C.3     1  LIG1        0.0000
     17 C17         4.2534    2.2883   -1.4337 C.3     1  LIG1        0.0000
     18 C18         5.6775    2.8170   -1.3822 C.2     1  LIG1        0.0000
     19 O19         6.2477    2.9036   -0.3299 O.2     1  LIG1        0.0000
     20 N20         6.3102    3.1946   -2.5372 N.am    1  LIG1        0.0000
     21 C21         7.6875    3.7058   -2.4874 C.3     1  LIG1        0.0000
     22 C22         5.6118    3.0885   -3.8263 C.3     1  LIG1        0.0000
     23 C23         2.3761    1.4111   -0.0130 C.3     1  LIG1        0.0000
     24 C24         1.1649    2.0958    0.0008 C.3     1  LIG1        0.0000
     25 C25        -0.0222    1.3711    0.0105 C.3     1  LIG1        0.0000
     26 Cl26       -1.5710    2.2480    0.0282 Cl      1  LIG1        0.0000
     27 C27         0.0001   -0.0204    0.0066 C.3     1  LIG1        0.0000
     28 C28         1.2251   -0.6794   -0.0055 C.3     1  LIG1        0.0000
     29 C29         2.4206    0.0327   -0.0147 C.3     1  LIG1        0.0000
     30 N30         6.3474   -2.3477    0.6352 N.2     1  LIG1        0.0000
     31 C31         9.9469   -2.9894    0.8279 C.3     1  LIG1        0.0000
     32 C32        10.9196   -3.4913    1.6857 C.3     1  LIG1        0.0000
     33 H           3.8822    2.7303    0.5828 H       1  LIG1        0.0000
     34 H          13.4353   -4.8077    3.9558 H       1  LIG1        0.0000
     35 H          12.8517   -4.9930    2.4420 H       1  LIG1        0.0000
     36 H          13.0862   -3.4952    3.0490 H       1  LIG1        0.0000
     37 H           8.9614   -4.2360    4.2701 H       1  LIG1        0.0000
     38 H           7.2936   -3.3680    2.7821 H       1  LIG1        0.0000
     39 H           8.7566   -1.9153   -1.3564 H       1  LIG1        0.0000
     40 H           7.1687   -0.8984   -3.2340 H       1  LIG1        0.0000
     41 H           5.4879    0.7270    0.1514 H       1  LIG1        0.0000
     42 H           4.5754    0.7484    1.5055 H       1  LIG1        0.0000
     43 H           4.2227    1.4683   -2.0052 H       1  LIG1        0.0000
     44 H           3.6522    2.9872   -1.8211 H       1  LIG1        0.0000
     45 H           7.9926    3.9325   -3.4124 H       1  LIG1        0.0000
     46 H           7.7182    4.5259   -1.9159 H       1  LIG1        0.0000
     47 H           8.2887    3.0069   -2.1000 H       1  LIG1        0.0000
     48 H           6.2148    3.4038   -4.5591 H       1  LIG1        0.0000
     49 H           5.3579    2.1353   -3.9904 H       1  LIG1        0.0000
     50 H           4.7874    3.6542   -3.8063 H       1  LIG1        0.0000
     51 H           1.1482    3.0956    0.0038 H       1  LIG1        0.0000
     52 H          -0.8541   -0.5403    0.0124 H       1  LIG1        0.0000
     53 H           1.2470   -1.6792   -0.0076 H       1  LIG1        0.0000
     54 H          10.2032   -2.6598   -0.0807 H       1  LIG1        0.0000
     55 H          11.8774   -3.5252    1.4000 H       1  LIG1        0.0000
@<TRIPOS>BOND
     1     1     2    1
     2     2     3    1
     3     3     4   ar
     4     4     5   ar
     5     5     6   ar
     6     6     7    1
     7     7     8    1
     8     8     9    2
     9     9    10    1
    10     9    11    1
    11    11    12    1
    12    12    13    2
    13    12    14   am
    14    14    15    1
    15    15    16    1
    16    16    17    1
    17    17    18    1
    18    18    19    2
    19    18    20   am
    20    20    21    1
    21    20    22    1
    22    16    23    1
    23    23    24   ar
    24    24    25   ar
    25    25    26    1
    26    25    27   ar
    27    27    28   ar
    28    28    29   ar
    29    29    23   ar
    30    29    14    1
    31    11    30    2
    32    30     7    1
    33     6    31   ar
    34    31    32   ar
    35    32     3   ar
    36    16    33    1
    37     1    34    1
    38     1    35    1
    39     1    36    1
    40     4    37    1
    41     5    38    1
    42     8    39    1
    43    10    40    1
    44    15    41    1
    45    15    42    1
    46    17    43    1
    47    17    44    1
    48    21    45    1
    49    21    46    1
    50    21    47    1
    51    22    48    1
    52    22    49    1
    53    22    50    1
    54    24    51    1
    55    27    52    1
    56    28    53    1
    57    31    54    1
    58    32    55    1
