@<TRIPOS>MOLECULE

  31   33
SMALL
USER_CHARGES
@<TRIPOS>ATOM
   1 C1           1.0852     1.4777    -0.4405 C.3          1    LIG   0.0000
   2 C2           1.0000     1.0000     1.0000 C.3          1    LIG   0.0000
   3 C3           1.8772     1.8772     1.8772 C.3          1    LIG   0.0000
   4 C4           1.3748     3.3074     1.7412 C.3          1    LIG   0.0000
   5 C5           2.0211     4.2452     2.7485 C.ar         1    LIG   0.0000
   6 C6           2.0508     5.6171     2.5397 C.ar         1    LIG   0.0000
   7 C7           2.6425     6.4386     3.4916 C.ar         1    LIG   0.0000
   8 C8           3.2150     5.8348     4.6085 C.ar         1    LIG   0.0000
   9 O9           3.7795     6.6652     5.5043 O.3          1    LIG   0.0000
  10 C10          3.2259     4.4546     4.8175 C.ar         1    LIG   0.0000
  11 C11          2.5681     3.6869     3.8837 C.ar         1    LIG   0.0000
  12 N12          2.5535     2.3302     4.2023 N.am         1    LIG   0.0000
  13 C13          1.8083     1.4181     3.3248 C.3          1    LIG   0.0000
  14 C14          3.2768     2.0933     5.3772 C.2          1    LIG   0.0000
  15 O15          3.4383     1.0233     5.9474 O.2          1    LIG   0.0000
  16 C16          3.8216     3.4404     5.7838 C.3          1    LIG   0.0000
  17 H            2.8233     1.8259     1.5574 H            1    LIG   0.0000
  18 H            0.5078     0.9004    -1.0178 H            1    LIG   0.0000
  19 H            0.7709     2.4254    -0.4965 H            1    LIG   0.0000
  20 H            2.0328     1.4217    -0.7548 H            1    LIG   0.0000
  21 H            0.0523     1.0560     1.3143 H            1    LIG   0.0000
  22 H            1.3143     0.0523     1.0560 H            1    LIG   0.0000
  23 H            1.5815     3.6343     0.8190 H            1    LIG   0.0000
  24 H            0.3850     3.3153     1.8836 H            1    LIG   0.0000
  25 H            1.6502     6.0105     1.7122 H            1    LIG   0.0000
  26 H            2.6569     7.4321     3.3782 H            1    LIG   0.0000
  27 H            3.7676     7.6527     5.3475 H            1    LIG   0.0000
  28 H            0.8516     1.3939     3.6150 H            1    LIG   0.0000
  29 H            2.2016     0.5015     3.3962 H            1    LIG   0.0000
  30 H            3.5490     3.6549     6.7217 H            1    LIG   0.0000
  31 H            4.8194     3.4443     5.7175 H            1    LIG   0.0000
@<TRIPOS>BOND
   1        1        2 1
   2        2        3 1
   3        3        4 1
   4        4        5 1
   5        5        6 ar
   6        6        7 ar
   7        7        8 ar
   8        8        9 1
   9        8       10 ar
  10       10       11 ar
  11       11        5 ar
  12       11       12 1
  13       12       13 1
  14       13        3 1
  15       12       14 am
  16       14       15 2
  17       14       16 1
  18       16       10 1
  19        3       17 1
  20        1       18 1
  21        1       19 1
  22        1       20 1
  23        2       21 1
  24        2       22 1
  25        4       23 1
  26        4       24 1
  27        6       25 1
  28        7       26 1
  29        9       27 1
  30       13       28 1
  31       13       29 1
  32       16       30 1
  33       16       31 1

@<TRIPOS>MOLECULE

  31   33
SMALL
USER_CHARGES
@<TRIPOS>ATOM
   1 C1           1.0852     1.4777    -0.4405 C.3          1    LIG   0.0000
   2 C2           1.0000     1.0000     1.0000 C.3          1    LIG   0.0000
   3 C3           1.8772     1.8772     1.8772 C.3          1    LIG   0.0000
   4 C4           1.1118     3.1647     2.1469 C.3          1    LIG   0.0000
   5 C5           1.7849     4.0267     3.2032 C.ar         1    LIG   0.0000
   6 C6           1.5246     5.3870     3.2959 C.ar         1    LIG   0.0000
   7 C7           2.1540     6.1354     4.2834 C.ar         1    LIG   0.0000
   8 C8           3.0535     5.4823     5.1225 C.ar         1    LIG   0.0000
   9 O9           3.6429     6.2432     6.0628 O.3          1    LIG   0.0000
  10 C10          3.3542     4.1229     5.0209 C.ar         1    LIG   0.0000
  11 C11          2.6559     3.4085     4.0742 C.ar         1    LIG   0.0000
  12 N12          2.9518     2.0467     4.0875 N.am         1    LIG   0.0000
  13 C13          2.2074     1.1648     3.1789 C.3          1    LIG   0.0000
  14 C14          3.9437     1.7683     5.0353 C.2          1    LIG   0.0000
  15 O15          4.4125     0.6754     5.3211 O.2          1    LIG   0.0000
  16 C16          4.3161     3.1077     5.6220 C.3          1    LIG   0.0000
  17 H            2.7248     2.0905     1.3913 H            1    LIG   0.0000
  18 H            0.5078     0.9004    -1.0178 H            1    LIG   0.0000
  19 H            0.7709     2.4254    -0.4965 H            1    LIG   0.0000
  20 H            2.0328     1.4217    -0.7548 H            1    LIG   0.0000
  21 H            0.0523     1.0560     1.3143 H            1    LIG   0.0000
  22 H            1.3143     0.0523     1.0560 H            1    LIG   0.0000
  23 H            1.0515     3.6870     1.2963 H            1    LIG   0.0000
  24 H            0.1914     2.9317     2.4609 H            1    LIG   0.0000
  25 H            0.8903     5.8242     2.6584 H            1    LIG   0.0000
  26 H            1.9669     7.1121     4.3881 H            1    LIG   0.0000
  27 H            3.4223     7.2163     6.1292 H            1    LIG   0.0000
  28 H            1.3567     0.8820     3.6218 H            1    LIG   0.0000
  29 H            2.7630     0.3580     2.9783 H            1    LIG   0.0000
  30 H            4.2205     3.0879     6.6172 H            1    LIG   0.0000
  31 H            5.2586     3.3403     5.3822 H            1    LIG   0.0000
@<TRIPOS>BOND
   1        1        2 1
   2        2        3 1
   3        3        4 1
   4        4        5 1
   5        5        6 ar
   6        6        7 ar
   7        7        8 ar
   8        8        9 1
   9        8       10 ar
  10       10       11 ar
  11       11        5 ar
  12       11       12 1
  13       12       13 1
  14       13        3 1
  15       12       14 am
  16       14       15 2
  17       14       16 1
  18       16       10 1
  19        3       17 1
  20        1       18 1
  21        1       19 1
  22        1       20 1
  23        2       21 1
  24        2       22 1
  25        4       23 1
  26        4       24 1
  27        6       25 1
  28        7       26 1
  29        9       27 1
  30       13       28 1
  31       13       29 1
  32       16       30 1
  33       16       31 1

@<TRIPOS>MOLECULE

  31   33
SMALL
USER_CHARGES
@<TRIPOS>ATOM
   1 C1           1.0852     1.4777    -0.4405 C.3          1    LIG   0.0000
   2 C2           1.0000     1.0000     1.0000 C.3          1    LIG   0.0000
   3 C3           1.8772     1.8772     1.8772 C.3          1    LIG   0.0000
   4 C4           1.7303     3.3094     1.3837 C.3          1    LIG   0.0000
   5 C5           2.3759     4.3140     2.3248 C.ar         1    LIG   0.0000
   6 C6           2.7400     5.5801     1.8875 C.ar         1    LIG   0.0000
   7 C7           3.3179     6.4707     2.7842 C.ar         1    LIG   0.0000
   8 C8           3.5378     6.0327     4.0878 C.ar         1    LIG   0.0000
   9 O9           4.1014     6.9244     4.9232 O.3          1    LIG   0.0000
  10 C10          3.2109     4.7515     4.5356 C.ar         1    LIG   0.0000
  11 C11          2.5782     3.9281     3.6324 C.ar         1    LIG   0.0000
  12 N12          2.2125     2.6979     4.1756 N.am         1    LIG   0.0000
  13 C13          1.4544     1.7637     3.3330 C.3          1    LIG   0.0000
  14 C14          2.6468     2.5978     5.5027 C.2          1    LIG   0.0000
  15 O15          2.4678     1.6663     6.2748 O.2          1    LIG   0.0000
  16 C16          3.3906     3.8826     5.7725 C.3          1    LIG   0.0000
  17 H            2.8308     1.5906     1.7852 H            1    LIG   0.0000
  18 H            0.5078     0.9004    -1.0178 H            1    LIG   0.0000
  19 H            0.7709     2.4254    -0.4965 H            1    LIG   0.0000
  20 H            2.0328     1.4217    -0.7548 H            1    LIG   0.0000
  21 H            0.0523     1.0560     1.3143 H            1    LIG   0.0000
  22 H            1.3143     0.0523     1.0560 H            1    LIG   0.0000
  23 H            2.1634     3.3859     0.4856 H            1    LIG   0.0000
  24 H            0.7568     3.5235     1.3036 H            1    LIG   0.0000
  25 H            2.5879     5.8487     0.9363 H            1    LIG   0.0000
  26 H            3.5679     7.3970     2.5023 H            1    LIG   0.0000
  27 H            4.3327     7.8403     4.5949 H            1    LIG   0.0000
  28 H            0.4795     1.9733     3.4077 H            1    LIG   0.0000
  29 H            1.6198     0.8297     3.6497 H            1    LIG   0.0000
  30 H            3.0093     4.3409     6.5754 H            1    LIG   0.0000
  31 H            4.3609     3.6950     5.9252 H            1    LIG   0.0000
@<TRIPOS>BOND
   1        1        2 1
   2        2        3 1
   3        3        4 1
   4        4        5 1
   5        5        6 ar
   6        6        7 ar
   7        7        8 ar
   8        8        9 1
   9        8       10 ar
  10       10       11 ar
  11       11        5 ar
  12       11       12 1
  13       12       13 1
  14       13        3 1
  15       12       14 am
  16       14       15 2
  17       14       16 1
  18       16       10 1
  19        3       17 1
  20        1       18 1
  21        1       19 1
  22        1       20 1
  23        2       21 1
  24        2       22 1
  25        4       23 1
  26        4       24 1
  27        6       25 1
  28        7       26 1
  29        9       27 1
  30       13       28 1
  31       13       29 1
  32       16       30 1
  33       16       31 1

@<TRIPOS>MOLECULE

  31   33
SMALL
USER_CHARGES
@<TRIPOS>ATOM
   1 C1           1.0852     1.4777    -0.4405 C.3          1    LIG   0.0000
   2 C2           1.0000     1.0000     1.0000 C.3          1    LIG   0.0000
   3 C3           1.8776     1.8776     1.8776 C.3          1    LIG   0.0000
   4 C4           1.4831     3.3443     1.8119 C.3          1    LIG   0.0000
   5 C5           0.1540     3.6236     2.4902 C.ar         1    LIG   0.0000
   6 C6          -0.6069     4.7429     2.2158 C.ar         1    LIG   0.0000
   7 C7          -1.8073     4.9230     2.8878 C.ar         1    LIG   0.0000
   8 C8          -2.2142     3.9540     3.7981 C.ar         1    LIG   0.0000
   9 O9          -3.3959     4.1566     4.4213 O.3          1    LIG   0.0000
  10 C10         -1.4642     2.8150     4.0436 C.ar         1    LIG   0.0000
  11 C11         -0.2463     2.6981     3.4323 C.ar         1    LIG   0.0000
  12 N12          0.4630     1.5862     3.8660 N.am         1    LIG   0.0000
  13 C13          1.8266     1.4391     3.3329 C.3          1    LIG   0.0000
  14 C14         -0.3221     0.8572     4.7622 C.2          1    LIG   0.0000
  15 O15          0.0013    -0.1652     5.3454 O.2          1    LIG   0.0000
  16 C16         -1.6545     1.5638     4.8845 C.3          1    LIG   0.0000
  17 H            2.8217     1.7935     1.5589 H            1    LIG   0.0000
  18 H            0.5078     0.9004    -1.0178 H            1    LIG   0.0000
  19 H            0.7709     2.4254    -0.4965 H            1    LIG   0.0000
  20 H            2.0328     1.4217    -0.7548 H            1    LIG   0.0000
  21 H            0.0523     1.0560     1.3143 H            1    LIG   0.0000
  22 H            1.3143     0.0523     1.0560 H            1    LIG   0.0000
  23 H            2.1923     3.8870     2.2619 H            1    LIG   0.0000
  24 H            1.4154     3.6148     0.8516 H            1    LIG   0.0000
  25 H           -0.2970     5.4141     1.5423 H            1    LIG   0.0000
  26 H           -2.3686     5.7336     2.7208 H            1    LIG   0.0000
  27 H           -3.9251     4.9840     4.2330 H            1    LIG   0.0000
  28 H            2.1041     0.4805     3.3980 H            1    LIG   0.0000
  29 H            2.4529     2.0046     3.8695 H            1    LIG   0.0000
  30 H           -2.3949     0.9977     4.5221 H            1    LIG   0.0000
  31 H           -1.8497     1.7983     5.8368 H            1    LIG   0.0000
@<TRIPOS>BOND
   1        1        2 1
   2        2        3 1
   3        3        4 1
   4        4        5 1
   5        5        6 ar
   6        6        7 ar
   7        7        8 ar
   8        8        9 1
   9        8       10 ar
  10       10       11 ar
  11       11        5 ar
  12       11       12 1
  13       12       13 1
  14       13        3 1
  15       12       14 am
  16       14       15 2
  17       14       16 1
  18       16       10 1
  19        3       17 1
  20        1       18 1
  21        1       19 1
  22        1       20 1
  23        2       21 1
  24        2       22 1
  25        4       23 1
  26        4       24 1
  27        6       25 1
  28        7       26 1
  29        9       27 1
  30       13       28 1
  31       13       29 1
  32       16       30 1
  33       16       31 1

@<TRIPOS>MOLECULE

  31   33
SMALL
USER_CHARGES
@<TRIPOS>ATOM
   1 C1           1.0852     1.4777    -0.4405 C.3          1    LIG   0.0000
   2 C2           1.0000     1.0000     1.0000 C.3          1    LIG   0.0000
   3 C3           1.8776     1.8776     1.8776 C.3          1    LIG   0.0000
   4 C4           1.2245     3.2111     2.2036 C.3          1    LIG   0.0000
   5 C5           0.0469     3.0697     3.1511 C.ar         1    LIG   0.0000
   6 C6          -0.9416     4.0272     3.2662 C.ar         1    LIG   0.0000
   7 C7          -1.9795     3.8197     4.1633 C.ar         1    LIG   0.0000
   8 C8          -2.0001     2.6396     4.8983 C.ar         1    LIG   0.0000
   9 O9          -3.0347     2.4665     5.7502 O.3          1    LIG   0.0000
  10 C10         -1.0248     1.6660     4.7532 C.ar         1    LIG   0.0000
  11 C11          0.0318     1.9273     3.9250 C.ar         1    LIG   0.0000
  12 N12          1.0041     0.9375     3.9735 N.am         1    LIG   0.0000
  13 C13          2.2231     1.1875     3.1880 C.3          1    LIG   0.0000
  14 C14          0.5749    -0.0920     4.8144 C.2          1    LIG   0.0000
  15 O15          1.1935    -1.1063     5.0944 O.2          1    LIG   0.0000
  16 C16         -0.8026     0.2746     5.3218 C.3          1    LIG   0.0000
  17 H            2.7293     2.0588     1.3859 H            1    LIG   0.0000
  18 H            0.5078     0.9004    -1.0178 H            1    LIG   0.0000
  19 H            0.7709     2.4254    -0.4965 H            1    LIG   0.0000
  20 H            2.0328     1.4217    -0.7548 H            1    LIG   0.0000
  21 H            0.0523     1.0560     1.3143 H            1    LIG   0.0000
  22 H            1.3143     0.0523     1.0560 H            1    LIG   0.0000
  23 H            1.9069     3.8065     2.6278 H            1    LIG   0.0000
  24 H            0.9026     3.6264     1.3528 H            1    LIG   0.0000
  25 H           -0.9098     4.8583     2.7109 H            1    LIG   0.0000
  26 H           -2.6983     4.5052     4.2789 H            1    LIG   0.0000
  27 H           -3.7303     3.1789     5.8434 H            1    LIG   0.0000
  28 H            2.6736     0.3163     2.9927 H            1    LIG   0.0000
  29 H            2.8406     1.7713     3.7150 H            1    LIG   0.0000
  30 H           -1.4917    -0.3655     4.9821 H            1    LIG   0.0000
  31 H           -0.8244     0.2883     6.3214 H            1    LIG   0.0000
@<TRIPOS>BOND
   1        1        2 1
   2        2        3 1
   3        3        4 1
   4        4        5 1
   5        5        6 ar
   6        6        7 ar
   7        7        8 ar
   8        8        9 1
   9        8       10 ar
  10       10       11 ar
  11       11        5 ar
  12       11       12 1
  13       12       13 1
  14       13        3 1
  15       12       14 am
  16       14       15 2
  17       14       16 1
  18       16       10 1
  19        3       17 1
  20        1       18 1
  21        1       19 1
  22        1       20 1
  23        2       21 1
  24        2       22 1
  25        4       23 1
  26        4       24 1
  27        6       25 1
  28        7       26 1
  29        9       27 1
  30       13       28 1
  31       13       29 1
  32       16       30 1
  33       16       31 1

@<TRIPOS>MOLECULE

  31   33
SMALL
USER_CHARGES
@<TRIPOS>ATOM
   1 C1           1.0852     1.4777    -0.4405 C.3          1    LIG   0.0000
   2 C2           1.0000     1.0000     1.0000 C.3          1    LIG   0.0000
   3 C3           1.8776     1.8776     1.8776 C.3          1    LIG   0.0000
   4 C4           1.8297     3.3410     1.4686 C.3          1    LIG   0.0000
   5 C5           0.4945     3.9923     1.7809 C.ar         1    LIG   0.0000
   6 C6           0.0565     5.1420     1.1534 C.ar         1    LIG   0.0000
   7 C7          -1.1757     5.6739     1.5053 C.ar         1    LIG   0.0000
   8 C8          -1.9386     5.0141     2.4623 C.ar         1    LIG   0.0000
   9 O9          -3.1392     5.5538     2.7675 O.3          1    LIG   0.0000
  10 C10         -1.5101     3.8412     3.0632 C.ar         1    LIG   0.0000
  11 C11         -0.2581     3.3800     2.7621 C.ar         1    LIG   0.0000
  12 N12          0.1038     2.2814     3.5299 N.am         1    LIG   0.0000
  13 C13          1.4751     1.7824     3.3410 C.3          1    LIG   0.0000
  14 C14         -0.9673     1.9160     4.3486 C.2          1    LIG   0.0000
  15 O15         -0.9828     1.0042     5.1601 O.2          1    LIG   0.0000
  16 C16         -2.1141     2.8571     4.0508 C.3          1    LIG   0.0000
  17 H            2.8220     1.5601     1.7920 H            1    LIG   0.0000
  18 H            0.5078     0.9004    -1.0178 H            1    LIG   0.0000
  19 H            0.7709     2.4254    -0.4965 H            1    LIG   0.0000
  20 H            2.0328     1.4217    -0.7548 H            1    LIG   0.0000
  21 H            0.0523     1.0560     1.3143 H            1    LIG   0.0000
  22 H            1.3143     0.0523     1.0560 H            1    LIG   0.0000
  23 H            2.5487     3.8340     1.9585 H            1    LIG   0.0000
  24 H            1.9939     3.4037     0.4842 H            1    LIG   0.0000
  25 H            0.6193     5.5847     0.4554 H            1    LIG   0.0000
  26 H           -1.5085     6.5151     1.0791 H            1    LIG   0.0000
  27 H           -3.4337     6.4008     2.3249 H            1    LIG   0.0000
  28 H            1.5214     0.8273     3.6339 H            1    LIG   0.0000
  29 H            2.1041     2.3308     3.8921 H            1    LIG   0.0000
  30 H           -2.8836     2.3662     3.6423 H            1    LIG   0.0000
  31 H           -2.4193     3.3239     4.8807 H            1    LIG   0.0000
@<TRIPOS>BOND
   1        1        2 1
   2        2        3 1
   3        3        4 1
   4        4        5 1
   5        5        6 ar
   6        6        7 ar
   7        7        8 ar
   8        8        9 1
   9        8       10 ar
  10       10       11 ar
  11       11        5 ar
  12       11       12 1
  13       12       13 1
  14       13        3 1
  15       12       14 am
  16       14       15 2
  17       14       16 1
  18       16       10 1
  19        3       17 1
  20        1       18 1
  21        1       19 1
  22        1       20 1
  23        2       21 1
  24        2       22 1
  25        4       23 1
  26        4       24 1
  27        6       25 1
  28        7       26 1
  29        9       27 1
  30       13       28 1
  31       13       29 1
  32       16       30 1
  33       16       31 1

