@<TRIPOS>MOLECULE
*****
 31 33 0 0 0
SMALL
USER_CHARGES

@<TRIPOS>ATOM
      1 C1          1.0852    1.4777   -0.4405 C.3     1  LIG1        0.0000
      2 C2          1.0000    1.0000    1.0000 C.3     1  LIG1        0.0000
      3 C3          1.8772    1.8772    1.8772 C.3     1  LIG1        0.0000
      4 C4          1.7303    3.3094    1.3837 C.3     1  LIG1        0.0000
      5 C5          2.3759    4.3140    2.3248 C.3     1  LIG1        0.0000
      6 C6          2.7400    5.5801    1.8875 C.3     1  LIG1        0.0000
      7 C7          3.3179    6.4707    2.7842 C.3     1  LIG1        0.0000
      8 C8          3.5378    6.0327    4.0878 C.3     1  LIG1        0.0000
      9 O9          4.1014    6.9244    4.9232 O.2     1  LIG1        0.0000
     10 C10         3.2109    4.7515    4.5356 C.3     1  LIG1        0.0000
     11 C11         2.5782    3.9281    3.6324 C.3     1  LIG1        0.0000
     12 N12         2.2125    2.6979    4.1756 N.am    1  LIG1        0.0000
     13 C13         1.4544    1.7637    3.3330 C.3     1  LIG1        0.0000
     14 C14         2.6468    2.5978    5.5027 C.2     1  LIG1        0.0000
     15 O15         2.4678    1.6663    6.2748 O.2     1  LIG1        0.0000
     16 C16         3.3906    3.8826    5.7725 C.3     1  LIG1        0.0000
     17 H           2.8308    1.5906    1.7852 H       1  LIG1        0.0000
     18 H           0.5078    0.9004   -1.0178 H       1  LIG1        0.0000
     19 H           0.7709    2.4254   -0.4965 H       1  LIG1        0.0000
     20 H           2.0328    1.4217   -0.7548 H       1  LIG1        0.0000
     21 H           0.0523    1.0560    1.3143 H       1  LIG1        0.0000
     22 H           1.3143    0.0523    1.0560 H       1  LIG1        0.0000
     23 H           2.1634    3.3859    0.4856 H       1  LIG1        0.0000
     24 H           0.7568    3.5235    1.3036 H       1  LIG1        0.0000
     25 H           2.5879    5.8487    0.9363 H       1  LIG1        0.0000
     26 H           3.5679    7.3970    2.5023 H       1  LIG1        0.0000
     27 H           4.3327    7.8403    4.5949 H       1  LIG1        0.0000
     28 H           0.4795    1.9733    3.4077 H       1  LIG1        0.0000
     29 H           1.6198    0.8297    3.6497 H       1  LIG1        0.0000
     30 H           3.0093    4.3409    6.5754 H       1  LIG1        0.0000
     31 H           4.3609    3.6950    5.9252 H       1  LIG1        0.0000
@<TRIPOS>BOND
     1     1     2    1
     2     2     3    1
     3     3     4    1
     4     4     5    1
     5     5     6   ar
     6     6     7   ar
     7     7     8   ar
     8     8     9    1
     9     8    10   ar
    10    10    11   ar
    11    11     5   ar
    12    11    12    1
    13    12    13    1
    14    13     3    1
    15    12    14   am
    16    14    15    2
    17    14    16    1
    18    16    10    1
    19     3    17    1
    20     1    18    1
    21     1    19    1
    22     1    20    1
    23     2    21    1
    24     2    22    1
    25     4    23    1
    26     4    24    1
    27     6    25    1
    28     7    26    1
    29     9    27    1
    30    13    28    1
    31    13    29    1
    32    16    30    1
    33    16    31    1
