@<TRIPOS>MOLECULE
*****
 31 33 0 0 0
SMALL
USER_CHARGES

@<TRIPOS>ATOM
      1 C1          1.0852    1.4777   -0.4405 C.3     1  LIG1        0.0000
      2 C2          1.0000    1.0000    1.0000 C.3     1  LIG1        0.0000
      3 C3          1.8776    1.8776    1.8776 C.3     1  LIG1        0.0000
      4 C4          1.2245    3.2111    2.2036 C.3     1  LIG1        0.0000
      5 C5          0.0469    3.0697    3.1511 C.3     1  LIG1        0.0000
      6 C6         -0.9416    4.0272    3.2662 C.3     1  LIG1        0.0000
      7 C7         -1.9795    3.8197    4.1633 C.3     1  LIG1        0.0000
      8 C8         -2.0001    2.6396    4.8983 C.3     1  LIG1        0.0000
      9 O9         -3.0347    2.4665    5.7502 O.2     1  LIG1        0.0000
     10 C10        -1.0248    1.6660    4.7532 C.3     1  LIG1        0.0000
     11 C11         0.0318    1.9273    3.9250 C.3     1  LIG1        0.0000
     12 N12         1.0041    0.9375    3.9735 N.am    1  LIG1        0.0000
     13 C13         2.2231    1.1875    3.1880 C.3     1  LIG1        0.0000
     14 C14         0.5749   -0.0920    4.8144 C.2     1  LIG1        0.0000
     15 O15         1.1935   -1.1063    5.0944 O.2     1  LIG1        0.0000
     16 C16        -0.8026    0.2746    5.3218 C.3     1  LIG1        0.0000
     17 H           2.7293    2.0588    1.3859 H       1  LIG1        0.0000
     18 H           0.5078    0.9004   -1.0178 H       1  LIG1        0.0000
     19 H           0.7709    2.4254   -0.4965 H       1  LIG1        0.0000
     20 H           2.0328    1.4217   -0.7548 H       1  LIG1        0.0000
     21 H           0.0523    1.0560    1.3143 H       1  LIG1        0.0000
     22 H           1.3143    0.0523    1.0560 H       1  LIG1        0.0000
     23 H           1.9069    3.8065    2.6278 H       1  LIG1        0.0000
     24 H           0.9026    3.6264    1.3528 H       1  LIG1        0.0000
     25 H          -0.9098    4.8583    2.7109 H       1  LIG1        0.0000
     26 H          -2.6983    4.5052    4.2789 H       1  LIG1        0.0000
     27 H          -3.7303    3.1789    5.8434 H       1  LIG1        0.0000
     28 H           2.6736    0.3163    2.9927 H       1  LIG1        0.0000
     29 H           2.8406    1.7713    3.7150 H       1  LIG1        0.0000
     30 H          -1.4917   -0.3655    4.9821 H       1  LIG1        0.0000
     31 H          -0.8244    0.2883    6.3214 H       1  LIG1        0.0000
@<TRIPOS>BOND
     1     1     2    1
     2     2     3    1
     3     3     4    1
     4     4     5    1
     5     5     6   ar
     6     6     7   ar
     7     7     8   ar
     8     8     9    1
     9     8    10   ar
    10    10    11   ar
    11    11     5   ar
    12    11    12    1
    13    12    13    1
    14    13     3    1
    15    12    14   am
    16    14    15    2
    17    14    16    1
    18    16    10    1
    19     3    17    1
    20     1    18    1
    21     1    19    1
    22     1    20    1
    23     2    21    1
    24     2    22    1
    25     4    23    1
    26     4    24    1
    27     6    25    1
    28     7    26    1
    29     9    27    1
    30    13    28    1
    31    13    29    1
    32    16    30    1
    33    16    31    1
