@<TRIPOS>MOLECULE
*****
 31 33 0 0 0
SMALL
USER_CHARGES

@<TRIPOS>ATOM
      1 C1          1.0852    1.4777   -0.4405 C.3     1  LIG1        0.0000
      2 C2          1.0000    1.0000    1.0000 C.3     1  LIG1        0.0000
      3 C3          1.8776    1.8776    1.8776 C.3     1  LIG1        0.0000
      4 C4          1.4831    3.3443    1.8119 C.3     1  LIG1        0.0000
      5 C5          0.1540    3.6236    2.4902 C.3     1  LIG1        0.0000
      6 C6         -0.6069    4.7429    2.2158 C.3     1  LIG1        0.0000
      7 C7         -1.8073    4.9230    2.8878 C.3     1  LIG1        0.0000
      8 C8         -2.2142    3.9540    3.7981 C.3     1  LIG1        0.0000
      9 O9         -3.3959    4.1566    4.4213 O.2     1  LIG1        0.0000
     10 C10        -1.4642    2.8150    4.0436 C.3     1  LIG1        0.0000
     11 C11        -0.2463    2.6981    3.4323 C.3     1  LIG1        0.0000
     12 N12         0.4630    1.5862    3.8660 N.am    1  LIG1        0.0000
     13 C13         1.8266    1.4391    3.3329 C.3     1  LIG1        0.0000
     14 C14        -0.3221    0.8572    4.7622 C.2     1  LIG1        0.0000
     15 O15         0.0013   -0.1652    5.3454 O.2     1  LIG1        0.0000
     16 C16        -1.6545    1.5638    4.8845 C.3     1  LIG1        0.0000
     17 H           2.8217    1.7935    1.5589 H       1  LIG1        0.0000
     18 H           0.5078    0.9004   -1.0178 H       1  LIG1        0.0000
     19 H           0.7709    2.4254   -0.4965 H       1  LIG1        0.0000
     20 H           2.0328    1.4217   -0.7548 H       1  LIG1        0.0000
     21 H           0.0523    1.0560    1.3143 H       1  LIG1        0.0000
     22 H           1.3143    0.0523    1.0560 H       1  LIG1        0.0000
     23 H           2.1923    3.8870    2.2619 H       1  LIG1        0.0000
     24 H           1.4154    3.6148    0.8516 H       1  LIG1        0.0000
     25 H          -0.2970    5.4141    1.5423 H       1  LIG1        0.0000
     26 H          -2.3686    5.7336    2.7208 H       1  LIG1        0.0000
     27 H          -3.9251    4.9840    4.2330 H       1  LIG1        0.0000
     28 H           2.1041    0.4805    3.3980 H       1  LIG1        0.0000
     29 H           2.4529    2.0046    3.8695 H       1  LIG1        0.0000
     30 H          -2.3949    0.9977    4.5221 H       1  LIG1        0.0000
     31 H          -1.8497    1.7983    5.8368 H       1  LIG1        0.0000
@<TRIPOS>BOND
     1     1     2    1
     2     2     3    1
     3     3     4    1
     4     4     5    1
     5     5     6   ar
     6     6     7   ar
     7     7     8   ar
     8     8     9    1
     9     8    10   ar
    10    10    11   ar
    11    11     5   ar
    12    11    12    1
    13    12    13    1
    14    13     3    1
    15    12    14   am
    16    14    15    2
    17    14    16    1
    18    16    10    1
    19     3    17    1
    20     1    18    1
    21     1    19    1
    22     1    20    1
    23     2    21    1
    24     2    22    1
    25     4    23    1
    26     4    24    1
    27     6    25    1
    28     7    26    1
    29     9    27    1
    30    13    28    1
    31    13    29    1
    32    16    30    1
    33    16    31    1
