@<TRIPOS>MOLECULE
*****
 31 33 0 0 0
SMALL
USER_CHARGES

@<TRIPOS>ATOM
      1 C1          1.0852    1.4777   -0.4405 C.3     1  LIG1        0.0000
      2 C2          1.0000    1.0000    1.0000 C.3     1  LIG1        0.0000
      3 C3          1.8772    1.8772    1.8772 C.3     1  LIG1        0.0000
      4 C4          1.3748    3.3074    1.7412 C.3     1  LIG1        0.0000
      5 C5          2.0211    4.2452    2.7485 C.3     1  LIG1        0.0000
      6 C6          2.0508    5.6171    2.5397 C.3     1  LIG1        0.0000
      7 C7          2.6425    6.4386    3.4916 C.3     1  LIG1        0.0000
      8 C8          3.2150    5.8348    4.6085 C.3     1  LIG1        0.0000
      9 O9          3.7795    6.6652    5.5043 O.2     1  LIG1        0.0000
     10 C10         3.2259    4.4546    4.8175 C.3     1  LIG1        0.0000
     11 C11         2.5681    3.6869    3.8837 C.3     1  LIG1        0.0000
     12 N12         2.5535    2.3302    4.2023 N.am    1  LIG1        0.0000
     13 C13         1.8083    1.4181    3.3248 C.3     1  LIG1        0.0000
     14 C14         3.2768    2.0933    5.3772 C.2     1  LIG1        0.0000
     15 O15         3.4383    1.0233    5.9474 O.2     1  LIG1        0.0000
     16 C16         3.8216    3.4404    5.7838 C.3     1  LIG1        0.0000
     17 H           2.8233    1.8259    1.5574 H       1  LIG1        0.0000
     18 H           0.5078    0.9004   -1.0178 H       1  LIG1        0.0000
     19 H           0.7709    2.4254   -0.4965 H       1  LIG1        0.0000
     20 H           2.0328    1.4217   -0.7548 H       1  LIG1        0.0000
     21 H           0.0523    1.0560    1.3143 H       1  LIG1        0.0000
     22 H           1.3143    0.0523    1.0560 H       1  LIG1        0.0000
     23 H           1.5815    3.6343    0.8190 H       1  LIG1        0.0000
     24 H           0.3850    3.3153    1.8836 H       1  LIG1        0.0000
     25 H           1.6502    6.0105    1.7122 H       1  LIG1        0.0000
     26 H           2.6569    7.4321    3.3782 H       1  LIG1        0.0000
     27 H           3.7676    7.6527    5.3475 H       1  LIG1        0.0000
     28 H           0.8516    1.3939    3.6150 H       1  LIG1        0.0000
     29 H           2.2016    0.5015    3.3962 H       1  LIG1        0.0000
     30 H           3.5490    3.6549    6.7217 H       1  LIG1        0.0000
     31 H           4.8194    3.4443    5.7175 H       1  LIG1        0.0000
@<TRIPOS>BOND
     1     1     2    1
     2     2     3    1
     3     3     4    1
     4     4     5    1
     5     5     6   ar
     6     6     7   ar
     7     7     8   ar
     8     8     9    1
     9     8    10   ar
    10    10    11   ar
    11    11     5   ar
    12    11    12    1
    13    12    13    1
    14    13     3    1
    15    12    14   am
    16    14    15    2
    17    14    16    1
    18    16    10    1
    19     3    17    1
    20     1    18    1
    21     1    19    1
    22     1    20    1
    23     2    21    1
    24     2    22    1
    25     4    23    1
    26     4    24    1
    27     6    25    1
    28     7    26    1
    29     9    27    1
    30    13    28    1
    31    13    29    1
    32    16    30    1
    33    16    31    1
