@<TRIPOS>MOLECULE
*****
 31 33 0 0 0
SMALL
USER_CHARGES

@<TRIPOS>ATOM
      1 C1          1.0852    1.4777   -0.4405 C.3     1  LIG1        0.0000
      2 C2          1.0000    1.0000    1.0000 C.3     1  LIG1        0.0000
      3 C3          1.8772    1.8772    1.8772 C.3     1  LIG1        0.0000
      4 C4          1.1118    3.1647    2.1469 C.3     1  LIG1        0.0000
      5 C5          1.7849    4.0267    3.2032 C.3     1  LIG1        0.0000
      6 C6          1.5246    5.3870    3.2959 C.3     1  LIG1        0.0000
      7 C7          2.1540    6.1354    4.2834 C.3     1  LIG1        0.0000
      8 C8          3.0535    5.4823    5.1225 C.3     1  LIG1        0.0000
      9 O9          3.6429    6.2432    6.0628 O.2     1  LIG1        0.0000
     10 C10         3.3542    4.1229    5.0209 C.3     1  LIG1        0.0000
     11 C11         2.6559    3.4085    4.0742 C.3     1  LIG1        0.0000
     12 N12         2.9518    2.0467    4.0875 N.am    1  LIG1        0.0000
     13 C13         2.2074    1.1648    3.1789 C.3     1  LIG1        0.0000
     14 C14         3.9437    1.7683    5.0353 C.2     1  LIG1        0.0000
     15 O15         4.4125    0.6754    5.3211 O.2     1  LIG1        0.0000
     16 C16         4.3161    3.1077    5.6220 C.3     1  LIG1        0.0000
     17 H           2.7248    2.0905    1.3913 H       1  LIG1        0.0000
     18 H           0.5078    0.9004   -1.0178 H       1  LIG1        0.0000
     19 H           0.7709    2.4254   -0.4965 H       1  LIG1        0.0000
     20 H           2.0328    1.4217   -0.7548 H       1  LIG1        0.0000
     21 H           0.0523    1.0560    1.3143 H       1  LIG1        0.0000
     22 H           1.3143    0.0523    1.0560 H       1  LIG1        0.0000
     23 H           1.0515    3.6870    1.2963 H       1  LIG1        0.0000
     24 H           0.1914    2.9317    2.4609 H       1  LIG1        0.0000
     25 H           0.8903    5.8242    2.6584 H       1  LIG1        0.0000
     26 H           1.9669    7.1121    4.3881 H       1  LIG1        0.0000
     27 H           3.4223    7.2163    6.1292 H       1  LIG1        0.0000
     28 H           1.3567    0.8820    3.6218 H       1  LIG1        0.0000
     29 H           2.7630    0.3580    2.9783 H       1  LIG1        0.0000
     30 H           4.2205    3.0879    6.6172 H       1  LIG1        0.0000
     31 H           5.2586    3.3403    5.3822 H       1  LIG1        0.0000
@<TRIPOS>BOND
     1     1     2    1
     2     2     3    1
     3     3     4    1
     4     4     5    1
     5     5     6   ar
     6     6     7   ar
     7     7     8   ar
     8     8     9    1
     9     8    10   ar
    10    10    11   ar
    11    11     5   ar
    12    11    12    1
    13    12    13    1
    14    13     3    1
    15    12    14   am
    16    14    15    2
    17    14    16    1
    18    16    10    1
    19     3    17    1
    20     1    18    1
    21     1    19    1
    22     1    20    1
    23     2    21    1
    24     2    22    1
    25     4    23    1
    26     4    24    1
    27     6    25    1
    28     7    26    1
    29     9    27    1
    30    13    28    1
    31    13    29    1
    32    16    30    1
    33    16    31    1
