@<TRIPOS>MOLECULE
*****
 31 33 0 0 0
SMALL
USER_CHARGES

@<TRIPOS>ATOM
      1 C1          1.0852    1.4777   -0.4405 C.3     1  LIG1        0.0000
      2 C2          1.0000    1.0000    1.0000 C.3     1  LIG1        0.0000
      3 C3          1.8776    1.8776    1.8776 C.3     1  LIG1        0.0000
      4 C4          1.8297    3.3410    1.4686 C.3     1  LIG1        0.0000
      5 C5          0.4945    3.9923    1.7809 C.3     1  LIG1        0.0000
      6 C6          0.0565    5.1420    1.1534 C.3     1  LIG1        0.0000
      7 C7         -1.1757    5.6739    1.5053 C.3     1  LIG1        0.0000
      8 C8         -1.9386    5.0141    2.4623 C.3     1  LIG1        0.0000
      9 O9         -3.1392    5.5538    2.7675 O.2     1  LIG1        0.0000
     10 C10        -1.5101    3.8412    3.0632 C.3     1  LIG1        0.0000
     11 C11        -0.2581    3.3800    2.7621 C.3     1  LIG1        0.0000
     12 N12         0.1038    2.2814    3.5299 N.am    1  LIG1        0.0000
     13 C13         1.4751    1.7824    3.3410 C.3     1  LIG1        0.0000
     14 C14        -0.9673    1.9160    4.3486 C.2     1  LIG1        0.0000
     15 O15        -0.9828    1.0042    5.1601 O.2     1  LIG1        0.0000
     16 C16        -2.1141    2.8571    4.0508 C.3     1  LIG1        0.0000
     17 H           2.8220    1.5601    1.7920 H       1  LIG1        0.0000
     18 H           0.5078    0.9004   -1.0178 H       1  LIG1        0.0000
     19 H           0.7709    2.4254   -0.4965 H       1  LIG1        0.0000
     20 H           2.0328    1.4217   -0.7548 H       1  LIG1        0.0000
     21 H           0.0523    1.0560    1.3143 H       1  LIG1        0.0000
     22 H           1.3143    0.0523    1.0560 H       1  LIG1        0.0000
     23 H           2.5487    3.8340    1.9585 H       1  LIG1        0.0000
     24 H           1.9939    3.4037    0.4842 H       1  LIG1        0.0000
     25 H           0.6193    5.5847    0.4554 H       1  LIG1        0.0000
     26 H          -1.5085    6.5151    1.0791 H       1  LIG1        0.0000
     27 H          -3.4337    6.4008    2.3249 H       1  LIG1        0.0000
     28 H           1.5214    0.8273    3.6339 H       1  LIG1        0.0000
     29 H           2.1041    2.3308    3.8921 H       1  LIG1        0.0000
     30 H          -2.8836    2.3662    3.6423 H       1  LIG1        0.0000
     31 H          -2.4193    3.3239    4.8807 H       1  LIG1        0.0000
@<TRIPOS>BOND
     1     1     2    1
     2     2     3    1
     3     3     4    1
     4     4     5    1
     5     5     6   ar
     6     6     7   ar
     7     7     8   ar
     8     8     9    1
     9     8    10   ar
    10    10    11   ar
    11    11     5   ar
    12    11    12    1
    13    12    13    1
    14    13     3    1
    15    12    14   am
    16    14    15    2
    17    14    16    1
    18    16    10    1
    19     3    17    1
    20     1    18    1
    21     1    19    1
    22     1    20    1
    23     2    21    1
    24     2    22    1
    25     4    23    1
    26     4    24    1
    27     6    25    1
    28     7    26    1
    29     9    27    1
    30    13    28    1
    31    13    29    1
    32    16    30    1
    33    16    31    1
