@<TRIPOS>MOLECULE

  52   55
SMALL
USER_CHARGES
@<TRIPOS>ATOM
   1 C1          -3.8048    -0.0937    -0.3224 C.3          1    LIG   0.0000
   2 C2          -3.1283     1.0837     0.3606 C.ar         1    LIG   0.0000
   3 C3          -1.7390     1.1254     0.3849 C.ar         1    LIG   0.0000
   4 C4          -1.0861     2.1865     1.0029 C.ar         1    LIG   0.0000
   5 N5           0.3150     2.1865     1.0029 N.am         1    LIG   0.0000
   6 C6           1.0000     1.0000     1.0000 C.2          1    LIG   0.0000
   7 O7           0.4000    -0.0392     0.9975 O.2          1    LIG   0.0000
   8 C8           2.4507     1.0000     1.0000 C.2          1    LIG   0.0000
   9 N9           3.1255     2.1362     1.0027 N.2          1    LIG   0.0000
  10 N10          4.4471     2.1644     1.0025 N.pl3        1    LIG   0.0000
  11 C11          5.0843     3.4110     1.0053 C.ar         1    LIG   0.0000
  12 C12          4.7030     4.3780     0.0807 C.ar         1    LIG   0.0000
  13 C13          5.3432     5.6126     0.0927 C.ar         1    LIG   0.0000
  14 C14          6.3499     5.8845     1.0130 C.ar         1    LIG   0.0000
  15 C15          6.7150     4.9030     1.9286 C.ar         1    LIG   0.0000
  16 C16          7.8145     5.1901     2.9381 C.3          1    LIG   0.0000
  17 F17          8.2234     4.0488     3.4849 F            1    LIG   0.0000
  18 F18          8.8370     5.7791     2.3245 F            1    LIG   0.0000
  19 F19          7.3451     5.9938     3.8882 F            1    LIG   0.0000
  20 C20          6.0886     3.6612     1.9343 C.ar         1    LIG   0.0000
  21 C21          5.1931     1.0126     0.9996 C.2          1    LIG   0.0000
  22 C22          6.7133     1.0449     0.9995 C.3          1    LIG   0.0000
  23 C23          4.5699    -0.2070     0.9968 C.2          1    LIG   0.0000
  24 C24          3.1507    -0.2375     0.9971 C.2          1    LIG   0.0000
  25 O25          2.5630    -1.3080     0.9947 O.2          1    LIG   0.0000
  26 C26         -1.8366     3.2014     1.5921 C.ar         1    LIG   0.0000
  27 C27         -1.2131     4.2750     2.2207 C.ar         1    LIG   0.0000
  28 C28         -1.9538     5.2930     2.8101 C.ar         1    LIG   0.0000
  29 C29         -3.3408     5.2111     2.7591 C.ar         1    LIG   0.0000
  30 N30         -3.9278     4.1702     2.1503 N.ar         1    LIG   0.0000
  31 C31         -3.2292     3.1752     1.5740 C.ar         1    LIG   0.0000
  32 C32         -3.8671     2.1038     0.9525 C.ar         1    LIG   0.0000
  33 C33         -5.3846     2.0087     0.8972 C.3          1    LIG   0.0000
  34 H           -3.1088    -0.7148    -0.6828 H            1    LIG   0.0000
  35 H           -4.3752    -0.5802     0.3394 H            1    LIG   0.0000
  36 H           -4.3753     0.2393    -1.0731 H            1    LIG   0.0000
  37 H           -1.2091     0.3926    -0.0419 H            1    LIG   0.0000
  38 H            0.8150     3.0525     1.0049 H            1    LIG   0.0000
  39 H            3.9793     4.1882    -0.5828 H            1    LIG   0.0000
  40 H            5.0764     6.3136    -0.5687 H            1    LIG   0.0000
  41 H            6.8056     6.7746     1.0165 H            1    LIG   0.0000
  42 H            6.3558     2.9600     2.5953 H            1    LIG   0.0000
  43 H            7.0666     0.1094     0.9972 H            1    LIG   0.0000
  44 H            7.0364     1.5253     0.1841 H            1    LIG   0.0000
  45 H            7.0366     1.5214     1.8171 H            1    LIG   0.0000
  46 H            5.1010    -1.0542     0.9947 H            1    LIG   0.0000
  47 H           -0.2143     4.3149     2.2489 H            1    LIG   0.0000
  48 H           -1.5011     6.0636     3.2588 H            1    LIG   0.0000
  49 H           -3.9002     5.9276     3.1759 H            1    LIG   0.0000
  50 H           -5.6489     1.1745     0.4133 H            1    LIG   0.0000
  51 H           -5.7511     1.9849     1.8273 H            1    LIG   0.0000
  52 H           -5.7511     2.8043     0.4148 H            1    LIG   0.0000
@<TRIPOS>BOND
   1        1        2 1
   2        2        3 ar
   3        3        4 ar
   4        4        5 1
   5        5        6 am
   6        6        7 2
   7        6        8 1
   8        8        9 2
   9        9       10 1
  10       10       11 1
  11       11       12 ar
  12       12       13 ar
  13       13       14 ar
  14       14       15 ar
  15       15       16 1
  16       16       17 1
  17       16       18 1
  18       16       19 1
  19       15       20 ar
  20       20       11 ar
  21       10       21 1
  22       21       22 1
  23       21       23 2
  24       23       24 1
  25       24        8 1
  26       24       25 2
  27        4       26 ar
  28       26       27 ar
  29       27       28 ar
  30       28       29 ar
  31       29       30 ar
  32       30       31 ar
  33       31       26 ar
  34       31       32 ar
  35       32        2 ar
  36       32       33 1
  37        1       34 1
  38        1       35 1
  39        1       36 1
  40        3       37 1
  41        5       38 1
  42       12       39 1
  43       13       40 1
  44       14       41 1
  45       20       42 1
  46       22       43 1
  47       22       44 1
  48       22       45 1
  49       23       46 1
  50       27       47 1
  51       28       48 1
  52       29       49 1
  53       33       50 1
  54       33       51 1
  55       33       52 1

@<TRIPOS>MOLECULE

  52   55
SMALL
USER_CHARGES
@<TRIPOS>ATOM
   1 C1          -3.8048    -0.1013     2.3149 C.3          1    LIG   0.0000
   2 C2          -3.1283     1.0789     1.6367 C.ar         1    LIG   0.0000
   3 C3          -1.7390     1.1208     1.6128 C.ar         1    LIG   0.0000
   4 C4          -1.0861     2.1865     1.0029 C.ar         1    LIG   0.0000
   5 N5           0.3150     2.1865     1.0029 N.am         1    LIG   0.0000
   6 C6           1.0000     1.0000     1.0000 C.2          1    LIG   0.0000
   7 O7           0.4000    -0.0392     0.9975 O.2          1    LIG   0.0000
   8 C8           2.4507     1.0000     1.0000 C.2          1    LIG   0.0000
   9 N9           3.1255     2.1362     1.0027 N.2          1    LIG   0.0000
  10 N10          4.4471     2.1644     1.0025 N.pl3        1    LIG   0.0000
  11 C11          5.0843     3.4110     1.0053 C.ar         1    LIG   0.0000
  12 C12          4.7030     4.3780     0.0807 C.ar         1    LIG   0.0000
  13 C13          5.3432     5.6126     0.0927 C.ar         1    LIG   0.0000
  14 C14          6.3499     5.8845     1.0130 C.ar         1    LIG   0.0000
  15 C15          6.7150     4.9030     1.9286 C.ar         1    LIG   0.0000
  16 C16          7.8145     5.1901     2.9381 C.3          1    LIG   0.0000
  17 F17          8.2234     4.0488     3.4849 F            1    LIG   0.0000
  18 F18          8.8370     5.7791     2.3245 F            1    LIG   0.0000
  19 F19          7.3451     5.9938     3.8882 F            1    LIG   0.0000
  20 C20          6.0886     3.6612     1.9343 C.ar         1    LIG   0.0000
  21 C21          5.1931     1.0126     0.9996 C.2          1    LIG   0.0000
  22 C22          6.7133     1.0449     0.9995 C.3          1    LIG   0.0000
  23 C23          4.5699    -0.2070     0.9968 C.2          1    LIG   0.0000
  24 C24          3.1507    -0.2375     0.9971 C.2          1    LIG   0.0000
  25 O25          2.5630    -1.3080     0.9947 O.2          1    LIG   0.0000
  26 C26         -1.8366     3.2042     0.4185 C.ar         1    LIG   0.0000
  27 C27         -1.2131     4.2854    -0.1970 C.ar         1    LIG   0.0000
  28 C28         -1.9538     5.3049    -0.7839 C.ar         1    LIG   0.0000
  29 C29         -3.3408     5.2198    -0.7385 C.ar         1    LIG   0.0000
  30 N30         -3.9278     4.1720    -0.1414 N.ar         1    LIG   0.0000
  31 C31         -3.2292     3.1755     0.4322 C.ar         1    LIG   0.0000
  32 C32         -3.8671     2.1015     1.0492 C.ar         1    LIG   0.0000
  33 C33         -5.3846     2.0061     1.1039 C.3          1    LIG   0.0000
  34 H           -3.1088    -0.7240     2.6726 H            1    LIG   0.0000
  35 H           -4.3752     0.2285     3.0671 H            1    LIG   0.0000
  36 H           -4.3753    -0.5850     1.6512 H            1    LIG   0.0000
  37 H           -1.2091     0.3847     2.0340 H            1    LIG   0.0000
  38 H            0.8150     3.0525     1.0049 H            1    LIG   0.0000
  39 H            3.9793     4.1882    -0.5828 H            1    LIG   0.0000
  40 H            5.0764     6.3136    -0.5687 H            1    LIG   0.0000
  41 H            6.8056     6.7746     1.0165 H            1    LIG   0.0000
  42 H            6.3558     2.9600     2.5953 H            1    LIG   0.0000
  43 H            7.0666     0.1094     0.9972 H            1    LIG   0.0000
  44 H            7.0364     1.5253     0.1841 H            1    LIG   0.0000
  45 H            7.0366     1.5214     1.8171 H            1    LIG   0.0000
  46 H            5.1010    -1.0542     0.9947 H            1    LIG   0.0000
  47 H           -0.2143     4.3298    -0.2174 H            1    LIG   0.0000
  48 H           -1.5011     6.0788    -1.2269 H            1    LIG   0.0000
  49 H           -3.9002     5.9390    -1.1506 H            1    LIG   0.0000
  50 H           -5.6489     1.1699     1.5844 H            1    LIG   0.0000
  51 H           -5.7511     2.7997     1.5897 H            1    LIG   0.0000
  52 H           -5.7511     1.9861     0.1737 H            1    LIG   0.0000
@<TRIPOS>BOND
   1        1        2 1
   2        2        3 ar
   3        3        4 ar
   4        4        5 1
   5        5        6 am
   6        6        7 2
   7        6        8 1
   8        8        9 2
   9        9       10 1
  10       10       11 1
  11       11       12 ar
  12       12       13 ar
  13       13       14 ar
  14       14       15 ar
  15       15       16 1
  16       16       17 1
  17       16       18 1
  18       16       19 1
  19       15       20 ar
  20       20       11 ar
  21       10       21 1
  22       21       22 1
  23       21       23 2
  24       23       24 1
  25       24        8 1
  26       24       25 2
  27        4       26 ar
  28       26       27 ar
  29       27       28 ar
  30       28       29 ar
  31       29       30 ar
  32       30       31 ar
  33       31       26 ar
  34       31       32 ar
  35       32        2 ar
  36       32       33 1
  37        1       34 1
  38        1       35 1
  39        1       36 1
  40        3       37 1
  41        5       38 1
  42       12       39 1
  43       13       40 1
  44       14       41 1
  45       20       42 1
  46       22       43 1
  47       22       44 1
  48       22       45 1
  49       23       46 1
  50       27       47 1
  51       28       48 1
  52       29       49 1
  53       33       50 1
  54       33       51 1
  55       33       52 1

@<TRIPOS>MOLECULE

  52   55
SMALL
USER_CHARGES
@<TRIPOS>ATOM
   1 C1          -3.8048    -0.0937    -0.3224 C.3          1    LIG   0.0000
   2 C2          -3.1283     1.0837     0.3606 C.ar         1    LIG   0.0000
   3 C3          -1.7390     1.1254     0.3849 C.ar         1    LIG   0.0000
   4 C4          -1.0861     2.1865     1.0029 C.ar         1    LIG   0.0000
   5 N5           0.3150     2.1865     1.0029 N.am         1    LIG   0.0000
   6 C6           1.0000     1.0000     1.0000 C.2          1    LIG   0.0000
   7 O7           0.4000    -0.0392     0.9975 O.2          1    LIG   0.0000
   8 C8           2.4507     1.0000     1.0000 C.2          1    LIG   0.0000
   9 N9           3.1255     2.1362     1.0027 N.2          1    LIG   0.0000
  10 N10          4.4471     2.1644     1.0025 N.pl3        1    LIG   0.0000
  11 C11          5.0843     3.4110     1.0053 C.ar         1    LIG   0.0000
  12 C12          4.7040     4.3733     1.9352 C.ar         1    LIG   0.0000
  13 C13          5.3437     5.6082     1.9284 C.ar         1    LIG   0.0000
  14 C14          6.3505     5.8842     1.0094 C.ar         1    LIG   0.0000
  15 C15          6.7148     4.9073     0.0886 C.ar         1    LIG   0.0000
  16 C16          7.8135     5.1994    -0.9203 C.3          1    LIG   0.0000
  17 F17          7.2674     5.5420    -2.0837 F            1    LIG   0.0000
  18 F18          8.5705     6.1980    -0.4747 F            1    LIG   0.0000
  19 F19          8.5639     4.1138    -1.0854 F            1    LIG   0.0000
  20 C20          6.0881     3.6656     0.0771 C.ar         1    LIG   0.0000
  21 C21          5.1931     1.0126     0.9996 C.2          1    LIG   0.0000
  22 C22          6.7133     1.0449     0.9995 C.3          1    LIG   0.0000
  23 C23          4.5699    -0.2070     0.9968 C.2          1    LIG   0.0000
  24 C24          3.1507    -0.2375     0.9971 C.2          1    LIG   0.0000
  25 O25          2.5630    -1.3080     0.9947 O.2          1    LIG   0.0000
  26 C26         -1.8366     3.2014     1.5921 C.ar         1    LIG   0.0000
  27 C27         -1.2131     4.2750     2.2207 C.ar         1    LIG   0.0000
  28 C28         -1.9538     5.2930     2.8101 C.ar         1    LIG   0.0000
  29 C29         -3.3408     5.2111     2.7591 C.ar         1    LIG   0.0000
  30 N30         -3.9278     4.1702     2.1503 N.ar         1    LIG   0.0000
  31 C31         -3.2292     3.1752     1.5740 C.ar         1    LIG   0.0000
  32 C32         -3.8671     2.1038     0.9525 C.ar         1    LIG   0.0000
  33 C33         -5.3846     2.0087     0.8972 C.3          1    LIG   0.0000
  34 H           -3.1088    -0.7148    -0.6828 H            1    LIG   0.0000
  35 H           -4.3752    -0.5802     0.3394 H            1    LIG   0.0000
  36 H           -4.3753     0.2393    -1.0731 H            1    LIG   0.0000
  37 H           -1.2091     0.3926    -0.0419 H            1    LIG   0.0000
  38 H            0.8150     3.0525     1.0049 H            1    LIG   0.0000
  39 H            3.9813     4.1800     2.5988 H            1    LIG   0.0000
  40 H            5.0766     6.3064     2.5926 H            1    LIG   0.0000
  41 H            6.8068     6.7740     1.0104 H            1    LIG   0.0000
  42 H            6.3550     2.9677    -0.5875 H            1    LIG   0.0000
  43 H            7.0666     0.1094     0.9972 H            1    LIG   0.0000
  44 H            7.0364     1.5253     0.1841 H            1    LIG   0.0000
  45 H            7.0366     1.5214     1.8171 H            1    LIG   0.0000
  46 H            5.1010    -1.0542     0.9947 H            1    LIG   0.0000
  47 H           -0.2143     4.3149     2.2489 H            1    LIG   0.0000
  48 H           -1.5011     6.0636     3.2588 H            1    LIG   0.0000
  49 H           -3.9002     5.9276     3.1759 H            1    LIG   0.0000
  50 H           -5.6489     1.1745     0.4133 H            1    LIG   0.0000
  51 H           -5.7511     1.9849     1.8273 H            1    LIG   0.0000
  52 H           -5.7511     2.8043     0.4148 H            1    LIG   0.0000
@<TRIPOS>BOND
   1        1        2 1
   2        2        3 ar
   3        3        4 ar
   4        4        5 1
   5        5        6 am
   6        6        7 2
   7        6        8 1
   8        8        9 2
   9        9       10 1
  10       10       11 1
  11       11       12 ar
  12       12       13 ar
  13       13       14 ar
  14       14       15 ar
  15       15       16 1
  16       16       17 1
  17       16       18 1
  18       16       19 1
  19       15       20 ar
  20       20       11 ar
  21       10       21 1
  22       21       22 1
  23       21       23 2
  24       23       24 1
  25       24        8 1
  26       24       25 2
  27        4       26 ar
  28       26       27 ar
  29       27       28 ar
  30       28       29 ar
  31       29       30 ar
  32       30       31 ar
  33       31       26 ar
  34       31       32 ar
  35       32        2 ar
  36       32       33 1
  37        1       34 1
  38        1       35 1
  39        1       36 1
  40        3       37 1
  41        5       38 1
  42       12       39 1
  43       13       40 1
  44       14       41 1
  45       20       42 1
  46       22       43 1
  47       22       44 1
  48       22       45 1
  49       23       46 1
  50       27       47 1
  51       28       48 1
  52       29       49 1
  53       33       50 1
  54       33       51 1
  55       33       52 1

@<TRIPOS>MOLECULE

  52   55
SMALL
USER_CHARGES
@<TRIPOS>ATOM
   1 C1          -3.8048    -0.1013     2.3149 C.3          1    LIG   0.0000
   2 C2          -3.1283     1.0789     1.6367 C.ar         1    LIG   0.0000
   3 C3          -1.7390     1.1208     1.6128 C.ar         1    LIG   0.0000
   4 C4          -1.0861     2.1865     1.0029 C.ar         1    LIG   0.0000
   5 N5           0.3150     2.1865     1.0029 N.am         1    LIG   0.0000
   6 C6           1.0000     1.0000     1.0000 C.2          1    LIG   0.0000
   7 O7           0.4000    -0.0392     0.9975 O.2          1    LIG   0.0000
   8 C8           2.4507     1.0000     1.0000 C.2          1    LIG   0.0000
   9 N9           3.1255     2.1362     1.0027 N.2          1    LIG   0.0000
  10 N10          4.4471     2.1644     1.0025 N.pl3        1    LIG   0.0000
  11 C11          5.0843     3.4110     1.0053 C.ar         1    LIG   0.0000
  12 C12          4.7040     4.3733     1.9352 C.ar         1    LIG   0.0000
  13 C13          5.3437     5.6082     1.9284 C.ar         1    LIG   0.0000
  14 C14          6.3505     5.8842     1.0094 C.ar         1    LIG   0.0000
  15 C15          6.7148     4.9073     0.0886 C.ar         1    LIG   0.0000
  16 C16          7.8135     5.1994    -0.9203 C.3          1    LIG   0.0000
  17 F17          7.2674     5.5420    -2.0837 F            1    LIG   0.0000
  18 F18          8.5705     6.1980    -0.4747 F            1    LIG   0.0000
  19 F19          8.5639     4.1138    -1.0854 F            1    LIG   0.0000
  20 C20          6.0881     3.6656     0.0771 C.ar         1    LIG   0.0000
  21 C21          5.1931     1.0126     0.9996 C.2          1    LIG   0.0000
  22 C22          6.7133     1.0449     0.9995 C.3          1    LIG   0.0000
  23 C23          4.5699    -0.2070     0.9968 C.2          1    LIG   0.0000
  24 C24          3.1507    -0.2375     0.9971 C.2          1    LIG   0.0000
  25 O25          2.5630    -1.3080     0.9947 O.2          1    LIG   0.0000
  26 C26         -1.8366     3.2042     0.4185 C.ar         1    LIG   0.0000
  27 C27         -1.2131     4.2854    -0.1970 C.ar         1    LIG   0.0000
  28 C28         -1.9538     5.3049    -0.7839 C.ar         1    LIG   0.0000
  29 C29         -3.3408     5.2198    -0.7385 C.ar         1    LIG   0.0000
  30 N30         -3.9278     4.1720    -0.1414 N.ar         1    LIG   0.0000
  31 C31         -3.2292     3.1755     0.4322 C.ar         1    LIG   0.0000
  32 C32         -3.8671     2.1015     1.0492 C.ar         1    LIG   0.0000
  33 C33         -5.3846     2.0061     1.1039 C.3          1    LIG   0.0000
  34 H           -3.1088    -0.7240     2.6726 H            1    LIG   0.0000
  35 H           -4.3752     0.2285     3.0671 H            1    LIG   0.0000
  36 H           -4.3753    -0.5850     1.6512 H            1    LIG   0.0000
  37 H           -1.2091     0.3847     2.0340 H            1    LIG   0.0000
  38 H            0.8150     3.0525     1.0049 H            1    LIG   0.0000
  39 H            3.9813     4.1800     2.5988 H            1    LIG   0.0000
  40 H            5.0766     6.3064     2.5926 H            1    LIG   0.0000
  41 H            6.8068     6.7740     1.0104 H            1    LIG   0.0000
  42 H            6.3550     2.9677    -0.5875 H            1    LIG   0.0000
  43 H            7.0666     0.1094     0.9972 H            1    LIG   0.0000
  44 H            7.0364     1.5253     0.1841 H            1    LIG   0.0000
  45 H            7.0366     1.5214     1.8171 H            1    LIG   0.0000
  46 H            5.1010    -1.0542     0.9947 H            1    LIG   0.0000
  47 H           -0.2143     4.3298    -0.2174 H            1    LIG   0.0000
  48 H           -1.5011     6.0788    -1.2269 H            1    LIG   0.0000
  49 H           -3.9002     5.9390    -1.1506 H            1    LIG   0.0000
  50 H           -5.6489     1.1699     1.5844 H            1    LIG   0.0000
  51 H           -5.7511     2.7997     1.5897 H            1    LIG   0.0000
  52 H           -5.7511     1.9861     0.1737 H            1    LIG   0.0000
@<TRIPOS>BOND
   1        1        2 1
   2        2        3 ar
   3        3        4 ar
   4        4        5 1
   5        5        6 am
   6        6        7 2
   7        6        8 1
   8        8        9 2
   9        9       10 1
  10       10       11 1
  11       11       12 ar
  12       12       13 ar
  13       13       14 ar
  14       14       15 ar
  15       15       16 1
  16       16       17 1
  17       16       18 1
  18       16       19 1
  19       15       20 ar
  20       20       11 ar
  21       10       21 1
  22       21       22 1
  23       21       23 2
  24       23       24 1
  25       24        8 1
  26       24       25 2
  27        4       26 ar
  28       26       27 ar
  29       27       28 ar
  30       28       29 ar
  31       29       30 ar
  32       30       31 ar
  33       31       26 ar
  34       31       32 ar
  35       32        2 ar
  36       32       33 1
  37        1       34 1
  38        1       35 1
  39        1       36 1
  40        3       37 1
  41        5       38 1
  42       12       39 1
  43       13       40 1
  44       14       41 1
  45       20       42 1
  46       22       43 1
  47       22       44 1
  48       22       45 1
  49       23       46 1
  50       27       47 1
  51       28       48 1
  52       29       49 1
  53       33       50 1
  54       33       51 1
  55       33       52 1

@<TRIPOS>MOLECULE

  52   55
SMALL
USER_CHARGES
@<TRIPOS>ATOM
   1 C1          -3.8048    -0.0937    -0.3224 C.3          1    LIG   0.0000
   2 C2          -3.1283     1.0837     0.3606 C.ar         1    LIG   0.0000
   3 C3          -1.7390     1.1254     0.3849 C.ar         1    LIG   0.0000
   4 C4          -1.0861     2.1865     1.0029 C.ar         1    LIG   0.0000
   5 N5           0.3150     2.1865     1.0029 N.am         1    LIG   0.0000
   6 C6           1.0000     1.0000     1.0000 C.2          1    LIG   0.0000
   7 O7           0.4000    -0.0392     0.9975 O.2          1    LIG   0.0000
   8 C8           2.4507     1.0000     1.0000 C.2          1    LIG   0.0000
   9 N9           3.1255     1.5705     0.0174 N.2          1    LIG   0.0000
  10 N10          4.4471     1.5844    -0.0071 N.pl3        1    LIG   0.0000
  11 C11          5.0843     2.2101    -1.0853 C.ar         1    LIG   0.0000
  12 C12          4.7030     1.8929    -2.3851 C.ar         1    LIG   0.0000
  13 C13          5.3432     2.5206    -3.4483 C.ar         1    LIG   0.0000
  14 C14          6.3499     3.4535    -3.2236 C.ar         1    LIG   0.0000
  15 C15          6.7150     3.7557    -1.9158 C.ar         1    LIG   0.0000
  16 C16          7.8145     4.7735    -1.6597 C.3          1    LIG   0.0000
  17 F17          8.7257     4.2467    -0.8466 F            1    LIG   0.0000
  18 F18          8.3883     5.1058    -2.8127 F            1    LIG   0.0000
  19 F19          7.2915     5.8586    -1.0958 F            1    LIG   0.0000
  20 C20          6.0886     3.1397    -0.8375 C.ar         1    LIG   0.0000
  21 C21          5.1931     1.0060     0.9889 C.2          1    LIG   0.0000
  22 C22          6.7133     1.0220     0.9608 C.3          1    LIG   0.0000
  23 C23          4.5699     0.3938     2.0437 C.2          1    LIG   0.0000
  24 C24          3.1507     0.3787     2.0703 C.2          1    LIG   0.0000
  25 O25          2.5630    -0.1586     2.9962 O.2          1    LIG   0.0000
  26 C26         -1.8366     3.2014     1.5921 C.ar         1    LIG   0.0000
  27 C27         -1.2131     4.2750     2.2207 C.ar         1    LIG   0.0000
  28 C28         -1.9538     5.2930     2.8101 C.ar         1    LIG   0.0000
  29 C29         -3.3408     5.2111     2.7591 C.ar         1    LIG   0.0000
  30 N30         -3.9278     4.1702     2.1503 N.ar         1    LIG   0.0000
  31 C31         -3.2292     3.1752     1.5740 C.ar         1    LIG   0.0000
  32 C32         -3.8671     2.1038     0.9525 C.ar         1    LIG   0.0000
  33 C33         -5.3846     2.0087     0.8972 C.3          1    LIG   0.0000
  34 H           -3.1088    -0.7148    -0.6828 H            1    LIG   0.0000
  35 H           -4.3752    -0.5802     0.3394 H            1    LIG   0.0000
  36 H           -4.3753     0.2393    -1.0731 H            1    LIG   0.0000
  37 H           -1.2091     0.3926    -0.0419 H            1    LIG   0.0000
  38 H            0.8150     3.0525     1.0049 H            1    LIG   0.0000
  39 H            3.9793     1.2233    -2.5525 H            1    LIG   0.0000
  40 H            5.0764     2.2983    -4.3861 H            1    LIG   0.0000
  41 H            6.8056     3.9016    -3.9927 H            1    LIG   0.0000
  42 H            6.3558     3.3616     0.1002 H            1    LIG   0.0000
  43 H            7.0666     0.5523     1.7698 H            1    LIG   0.0000
  44 H            7.0364     0.5560     0.1371 H            1    LIG   0.0000
  45 H            7.0366     1.9683     0.9570 H            1    LIG   0.0000
  46 H            5.1010    -0.0317     2.7764 H            1    LIG   0.0000
  47 H           -0.2143     4.3149     2.2489 H            1    LIG   0.0000
  48 H           -1.5011     6.0636     3.2588 H            1    LIG   0.0000
  49 H           -3.9002     5.9276     3.1759 H            1    LIG   0.0000
  50 H           -5.6489     1.1745     0.4133 H            1    LIG   0.0000
  51 H           -5.7511     1.9849     1.8273 H            1    LIG   0.0000
  52 H           -5.7511     2.8043     0.4148 H            1    LIG   0.0000
@<TRIPOS>BOND
   1        1        2 1
   2        2        3 ar
   3        3        4 ar
   4        4        5 1
   5        5        6 am
   6        6        7 2
   7        6        8 1
   8        8        9 2
   9        9       10 1
  10       10       11 1
  11       11       12 ar
  12       12       13 ar
  13       13       14 ar
  14       14       15 ar
  15       15       16 1
  16       16       17 1
  17       16       18 1
  18       16       19 1
  19       15       20 ar
  20       20       11 ar
  21       10       21 1
  22       21       22 1
  23       21       23 2
  24       23       24 1
  25       24        8 1
  26       24       25 2
  27        4       26 ar
  28       26       27 ar
  29       27       28 ar
  30       28       29 ar
  31       29       30 ar
  32       30       31 ar
  33       31       26 ar
  34       31       32 ar
  35       32        2 ar
  36       32       33 1
  37        1       34 1
  38        1       35 1
  39        1       36 1
  40        3       37 1
  41        5       38 1
  42       12       39 1
  43       13       40 1
  44       14       41 1
  45       20       42 1
  46       22       43 1
  47       22       44 1
  48       22       45 1
  49       23       46 1
  50       27       47 1
  51       28       48 1
  52       29       49 1
  53       33       50 1
  54       33       51 1
  55       33       52 1

@<TRIPOS>MOLECULE

  52   55
SMALL
USER_CHARGES
@<TRIPOS>ATOM
   1 C1          -3.8048    -0.0937    -0.3224 C.3          1    LIG   0.0000
   2 C2          -3.1283     1.0837     0.3606 C.ar         1    LIG   0.0000
   3 C3          -1.7390     1.1254     0.3849 C.ar         1    LIG   0.0000
   4 C4          -1.0861     2.1865     1.0029 C.ar         1    LIG   0.0000
   5 N5           0.3150     2.1865     1.0029 N.am         1    LIG   0.0000
   6 C6           1.0000     1.0000     1.0000 C.2          1    LIG   0.0000
   7 O7           0.4000    -0.0392     0.9975 O.2          1    LIG   0.0000
   8 C8           2.4507     1.0000     1.0000 C.2          1    LIG   0.0000
   9 N9           3.1255     1.5705     0.0174 N.2          1    LIG   0.0000
  10 N10          4.4471     1.5844    -0.0071 N.pl3        1    LIG   0.0000
  11 C11          5.0843     2.2101    -1.0853 C.ar         1    LIG   0.0000
  12 C12          4.7040     3.4966    -1.4538 C.ar         1    LIG   0.0000
  13 C13          5.3437     4.1081    -2.5266 C.ar         1    LIG   0.0000
  14 C14          6.3505     3.4502    -3.2252 C.ar         1    LIG   0.0000
  15 C15          6.7148     2.1643    -2.8395 C.ar         1    LIG   0.0000
  16 C16          7.8135     1.4366    -3.5970 C.3          1    LIG   0.0000
  17 F17          7.5735     1.5080    -4.9032 F            1    LIG   0.0000
  18 F18          8.9865     2.0038    -3.3301 F            1    LIG   0.0000
  19 F19          7.8417     0.1614    -3.2204 F            1    LIG   0.0000
  20 C20          6.0881     1.5335    -1.7700 C.ar         1    LIG   0.0000
  21 C21          5.1931     1.0060     0.9889 C.2          1    LIG   0.0000
  22 C22          6.7133     1.0220     0.9608 C.3          1    LIG   0.0000
  23 C23          4.5699     0.3938     2.0437 C.2          1    LIG   0.0000
  24 C24          3.1507     0.3787     2.0703 C.2          1    LIG   0.0000
  25 O25          2.5630    -0.1586     2.9962 O.2          1    LIG   0.0000
  26 C26         -1.8366     3.2014     1.5921 C.ar         1    LIG   0.0000
  27 C27         -1.2131     4.2750     2.2207 C.ar         1    LIG   0.0000
  28 C28         -1.9538     5.2930     2.8101 C.ar         1    LIG   0.0000
  29 C29         -3.3408     5.2111     2.7591 C.ar         1    LIG   0.0000
  30 N30         -3.9278     4.1702     2.1503 N.ar         1    LIG   0.0000
  31 C31         -3.2292     3.1752     1.5740 C.ar         1    LIG   0.0000
  32 C32         -3.8671     2.1038     0.9525 C.ar         1    LIG   0.0000
  33 C33         -5.3846     2.0087     0.8972 C.3          1    LIG   0.0000
  34 H           -3.1088    -0.7148    -0.6828 H            1    LIG   0.0000
  35 H           -4.3752    -0.5802     0.3394 H            1    LIG   0.0000
  36 H           -4.3753     0.2393    -1.0731 H            1    LIG   0.0000
  37 H           -1.2091     0.3926    -0.0419 H            1    LIG   0.0000
  38 H            0.8150     3.0525     1.0049 H            1    LIG   0.0000
  39 H            3.9813     3.9746    -0.9545 H            1    LIG   0.0000
  40 H            5.0766     5.0324    -2.7992 H            1    LIG   0.0000
  41 H            6.8068     3.8961    -3.9952 H            1    LIG   0.0000
  42 H            6.3550     0.6090    -1.4978 H            1    LIG   0.0000
  43 H            7.0666     0.5523     1.7698 H            1    LIG   0.0000
  44 H            7.0364     0.5560     0.1371 H            1    LIG   0.0000
  45 H            7.0366     1.9683     0.9570 H            1    LIG   0.0000
  46 H            5.1010    -0.0317     2.7764 H            1    LIG   0.0000
  47 H           -0.2143     4.3149     2.2489 H            1    LIG   0.0000
  48 H           -1.5011     6.0636     3.2588 H            1    LIG   0.0000
  49 H           -3.9002     5.9276     3.1759 H            1    LIG   0.0000
  50 H           -5.6489     1.1745     0.4133 H            1    LIG   0.0000
  51 H           -5.7511     1.9849     1.8273 H            1    LIG   0.0000
  52 H           -5.7511     2.8043     0.4148 H            1    LIG   0.0000
@<TRIPOS>BOND
   1        1        2 1
   2        2        3 ar
   3        3        4 ar
   4        4        5 1
   5        5        6 am
   6        6        7 2
   7        6        8 1
   8        8        9 2
   9        9       10 1
  10       10       11 1
  11       11       12 ar
  12       12       13 ar
  13       13       14 ar
  14       14       15 ar
  15       15       16 1
  16       16       17 1
  17       16       18 1
  18       16       19 1
  19       15       20 ar
  20       20       11 ar
  21       10       21 1
  22       21       22 1
  23       21       23 2
  24       23       24 1
  25       24        8 1
  26       24       25 2
  27        4       26 ar
  28       26       27 ar
  29       27       28 ar
  30       28       29 ar
  31       29       30 ar
  32       30       31 ar
  33       31       26 ar
  34       31       32 ar
  35       32        2 ar
  36       32       33 1
  37        1       34 1
  38        1       35 1
  39        1       36 1
  40        3       37 1
  41        5       38 1
  42       12       39 1
  43       13       40 1
  44       14       41 1
  45       20       42 1
  46       22       43 1
  47       22       44 1
  48       22       45 1
  49       23       46 1
  50       27       47 1
  51       28       48 1
  52       29       49 1
  53       33       50 1
  54       33       51 1
  55       33       52 1

@<TRIPOS>MOLECULE

  52   55
SMALL
USER_CHARGES
@<TRIPOS>ATOM
   1 C1          -3.8048    -0.1013     2.3149 C.3          1    LIG   0.0000
   2 C2          -3.1283     1.0789     1.6367 C.ar         1    LIG   0.0000
   3 C3          -1.7390     1.1208     1.6128 C.ar         1    LIG   0.0000
   4 C4          -1.0861     2.1865     1.0029 C.ar         1    LIG   0.0000
   5 N5           0.3150     2.1865     1.0029 N.am         1    LIG   0.0000
   6 C6           1.0000     1.0000     1.0000 C.2          1    LIG   0.0000
   7 O7           0.4000    -0.0392     0.9975 O.2          1    LIG   0.0000
   8 C8           2.4507     1.0000     1.0000 C.2          1    LIG   0.0000
   9 N9           3.1255     1.5657     1.9853 N.2          1    LIG   0.0000
  10 N10          4.4471     1.5800     2.0096 N.pl3        1    LIG   0.0000
  11 C11          5.0843     2.2009     3.0907 C.ar         1    LIG   0.0000
  12 C12          4.7030     3.4852     3.4658 C.ar         1    LIG   0.0000
  13 C13          5.3432     4.0921     4.5410 C.ar         1    LIG   0.0000
  14 C14          6.3499     3.4310     5.2366 C.ar         1    LIG   0.0000
  15 C15          6.7150     2.1473     4.8444 C.ar         1    LIG   0.0000
  16 C16          7.8145     1.4166     5.5978 C.3          1    LIG   0.0000
  17 F17          7.9535     0.1909     5.1006 F            1    LIG   0.0000
  18 F18          8.9591     2.0810     5.4661 F            1    LIG   0.0000
  19 F19          7.4928     1.3387     6.8860 F            1    LIG   0.0000
  20 C20          6.0886     1.5215     3.7718 C.ar         1    LIG   0.0000
  21 C21          5.1931     1.0066     1.0107 C.2          1    LIG   0.0000
  22 C22          6.7133     1.0229     1.0387 C.3          1    LIG   0.0000
  23 C23          4.5699     0.3993    -0.0468 C.2          1    LIG   0.0000
  24 C24          3.1507     0.3838    -0.0732 C.2          1    LIG   0.0000
  25 O25          2.5630    -0.1494    -1.0014 O.2          1    LIG   0.0000
  26 C26         -1.8366     3.2042     0.4185 C.ar         1    LIG   0.0000
  27 C27         -1.2131     4.2854    -0.1970 C.ar         1    LIG   0.0000
  28 C28         -1.9538     5.3049    -0.7839 C.ar         1    LIG   0.0000
  29 C29         -3.3408     5.2198    -0.7385 C.ar         1    LIG   0.0000
  30 N30         -3.9278     4.1720    -0.1414 N.ar         1    LIG   0.0000
  31 C31         -3.2292     3.1755     0.4322 C.ar         1    LIG   0.0000
  32 C32         -3.8671     2.1015     1.0492 C.ar         1    LIG   0.0000
  33 C33         -5.3846     2.0061     1.1039 C.3          1    LIG   0.0000
  34 H           -3.1088    -0.7240     2.6726 H            1    LIG   0.0000
  35 H           -4.3752     0.2285     3.0671 H            1    LIG   0.0000
  36 H           -4.3753    -0.5850     1.6512 H            1    LIG   0.0000
  37 H           -1.2091     0.3847     2.0340 H            1    LIG   0.0000
  38 H            0.8150     3.0525     1.0049 H            1    LIG   0.0000
  39 H            3.9793     3.9648     2.9696 H            1    LIG   0.0000
  40 H            5.0764     5.0153     4.8174 H            1    LIG   0.0000
  41 H            6.8056     3.8730     6.0092 H            1    LIG   0.0000
  42 H            6.3558     0.5984     3.4951 H            1    LIG   0.0000
  43 H            7.0666     0.5572     0.2273 H            1    LIG   0.0000
  44 H            7.0364     1.9693     1.0470 H            1    LIG   0.0000
  45 H            7.0366     0.5531     1.8600 H            1    LIG   0.0000
  46 H            5.1010    -0.0225    -0.7817 H            1    LIG   0.0000
  47 H           -0.2143     4.3298    -0.2174 H            1    LIG   0.0000
  48 H           -1.5011     6.0788    -1.2269 H            1    LIG   0.0000
  49 H           -3.9002     5.9390    -1.1506 H            1    LIG   0.0000
  50 H           -5.6489     1.1699     1.5844 H            1    LIG   0.0000
  51 H           -5.7511     2.7997     1.5897 H            1    LIG   0.0000
  52 H           -5.7511     1.9861     0.1737 H            1    LIG   0.0000
@<TRIPOS>BOND
   1        1        2 1
   2        2        3 ar
   3        3        4 ar
   4        4        5 1
   5        5        6 am
   6        6        7 2
   7        6        8 1
   8        8        9 2
   9        9       10 1
  10       10       11 1
  11       11       12 ar
  12       12       13 ar
  13       13       14 ar
  14       14       15 ar
  15       15       16 1
  16       16       17 1
  17       16       18 1
  18       16       19 1
  19       15       20 ar
  20       20       11 ar
  21       10       21 1
  22       21       22 1
  23       21       23 2
  24       23       24 1
  25       24        8 1
  26       24       25 2
  27        4       26 ar
  28       26       27 ar
  29       27       28 ar
  30       28       29 ar
  31       29       30 ar
  32       30       31 ar
  33       31       26 ar
  34       31       32 ar
  35       32        2 ar
  36       32       33 1
  37        1       34 1
  38        1       35 1
  39        1       36 1
  40        3       37 1
  41        5       38 1
  42       12       39 1
  43       13       40 1
  44       14       41 1
  45       20       42 1
  46       22       43 1
  47       22       44 1
  48       22       45 1
  49       23       46 1
  50       27       47 1
  51       28       48 1
  52       29       49 1
  53       33       50 1
  54       33       51 1
  55       33       52 1

@<TRIPOS>MOLECULE

  52   55
SMALL
USER_CHARGES
@<TRIPOS>ATOM
   1 C1          -3.8048    -0.0937    -0.3224 C.3          1    LIG   0.0000
   2 C2          -3.1283     1.0837     0.3606 C.ar         1    LIG   0.0000
   3 C3          -1.7390     1.1254     0.3849 C.ar         1    LIG   0.0000
   4 C4          -1.0861     2.1865     1.0029 C.ar         1    LIG   0.0000
   5 N5           0.3150     2.1865     1.0029 N.am         1    LIG   0.0000
   6 C6           1.0000     1.0000     1.0000 C.2          1    LIG   0.0000
   7 O7           0.4000    -0.0392     0.9975 O.2          1    LIG   0.0000
   8 C8           2.4507     1.0000     1.0000 C.2          1    LIG   0.0000
   9 N9           3.1255     1.5657     1.9853 N.2          1    LIG   0.0000
  10 N10          4.4471     1.5800     2.0096 N.pl3        1    LIG   0.0000
  11 C11          5.0843     2.2009     3.0907 C.ar         1    LIG   0.0000
  12 C12          4.7040     1.8767     4.3890 C.ar         1    LIG   0.0000
  13 C13          5.3437     2.5001     5.4550 C.ar         1    LIG   0.0000
  14 C14          6.3505     3.4340     5.2345 C.ar         1    LIG   0.0000
  15 C15          6.7148     3.7429     3.9281 C.ar         1    LIG   0.0000
  16 C16          7.8135     4.7628     3.6766 C.3          1    LIG   0.0000
  17 F17          9.0004     4.1805     3.8213 F            1    LIG   0.0000
  18 F18          7.7013     5.2395     2.4401 F            1    LIG   0.0000
  19 F19          7.7000     5.7607     4.5485 F            1    LIG   0.0000
  20 C20          6.0881     3.1321     2.8470 C.ar         1    LIG   0.0000
  21 C21          5.1931     1.0066     1.0107 C.2          1    LIG   0.0000
  22 C22          6.7133     1.0229     1.0387 C.3          1    LIG   0.0000
  23 C23          4.5699     0.3993    -0.0468 C.2          1    LIG   0.0000
  24 C24          3.1507     0.3838    -0.0732 C.2          1    LIG   0.0000
  25 O25          2.5630    -0.1494    -1.0014 O.2          1    LIG   0.0000
  26 C26         -1.8366     3.2014     1.5921 C.ar         1    LIG   0.0000
  27 C27         -1.2131     4.2750     2.2207 C.ar         1    LIG   0.0000
  28 C28         -1.9538     5.2930     2.8101 C.ar         1    LIG   0.0000
  29 C29         -3.3408     5.2111     2.7591 C.ar         1    LIG   0.0000
  30 N30         -3.9278     4.1702     2.1503 N.ar         1    LIG   0.0000
  31 C31         -3.2292     3.1752     1.5740 C.ar         1    LIG   0.0000
  32 C32         -3.8671     2.1038     0.9525 C.ar         1    LIG   0.0000
  33 C33         -5.3846     2.0087     0.8972 C.3          1    LIG   0.0000
  34 H           -3.1088    -0.7148    -0.6828 H            1    LIG   0.0000
  35 H           -4.3752    -0.5802     0.3394 H            1    LIG   0.0000
  36 H           -4.3753     0.2393    -1.0731 H            1    LIG   0.0000
  37 H           -1.2091     0.3926    -0.0419 H            1    LIG   0.0000
  38 H            0.8150     3.0525     1.0049 H            1    LIG   0.0000
  39 H            3.9813     1.2054     4.5533 H            1    LIG   0.0000
  40 H            5.0766     2.2739     6.3918 H            1    LIG   0.0000
  41 H            6.8068     3.8780     6.0057 H            1    LIG   0.0000
  42 H            6.3550     3.3587     1.9103 H            1    LIG   0.0000
  43 H            7.0666     0.5572     0.2273 H            1    LIG   0.0000
  44 H            7.0364     1.9693     1.0470 H            1    LIG   0.0000
  45 H            7.0366     0.5531     1.8600 H            1    LIG   0.0000
  46 H            5.1010    -0.0225    -0.7817 H            1    LIG   0.0000
  47 H           -0.2143     4.3149     2.2489 H            1    LIG   0.0000
  48 H           -1.5011     6.0636     3.2588 H            1    LIG   0.0000
  49 H           -3.9002     5.9276     3.1759 H            1    LIG   0.0000
  50 H           -5.6489     1.1745     0.4133 H            1    LIG   0.0000
  51 H           -5.7511     1.9849     1.8273 H            1    LIG   0.0000
  52 H           -5.7511     2.8043     0.4148 H            1    LIG   0.0000
@<TRIPOS>BOND
   1        1        2 1
   2        2        3 ar
   3        3        4 ar
   4        4        5 1
   5        5        6 am
   6        6        7 2
   7        6        8 1
   8        8        9 2
   9        9       10 1
  10       10       11 1
  11       11       12 ar
  12       12       13 ar
  13       13       14 ar
  14       14       15 ar
  15       15       16 1
  16       16       17 1
  17       16       18 1
  18       16       19 1
  19       15       20 ar
  20       20       11 ar
  21       10       21 1
  22       21       22 1
  23       21       23 2
  24       23       24 1
  25       24        8 1
  26       24       25 2
  27        4       26 ar
  28       26       27 ar
  29       27       28 ar
  30       28       29 ar
  31       29       30 ar
  32       30       31 ar
  33       31       26 ar
  34       31       32 ar
  35       32        2 ar
  36       32       33 1
  37        1       34 1
  38        1       35 1
  39        1       36 1
  40        3       37 1
  41        5       38 1
  42       12       39 1
  43       13       40 1
  44       14       41 1
  45       20       42 1
  46       22       43 1
  47       22       44 1
  48       22       45 1
  49       23       46 1
  50       27       47 1
  51       28       48 1
  52       29       49 1
  53       33       50 1
  54       33       51 1
  55       33       52 1

@<TRIPOS>MOLECULE

  52   55
SMALL
USER_CHARGES
@<TRIPOS>ATOM
   1 C1          -3.8048    -0.1013     2.3149 C.3          1    LIG   0.0000
   2 C2          -3.1283     1.0789     1.6367 C.ar         1    LIG   0.0000
   3 C3          -1.7390     1.1208     1.6128 C.ar         1    LIG   0.0000
   4 C4          -1.0861     2.1865     1.0029 C.ar         1    LIG   0.0000
   5 N5           0.3150     2.1865     1.0029 N.am         1    LIG   0.0000
   6 C6           1.0000     1.0000     1.0000 C.2          1    LIG   0.0000
   7 O7           0.4000    -0.0392     0.9975 O.2          1    LIG   0.0000
   8 C8           2.4507     1.0000     1.0000 C.2          1    LIG   0.0000
   9 N9           3.1255     1.5657     1.9853 N.2          1    LIG   0.0000
  10 N10          4.4471     1.5800     2.0096 N.pl3        1    LIG   0.0000
  11 C11          5.0843     2.2009     3.0907 C.ar         1    LIG   0.0000
  12 C12          4.7040     1.8767     4.3890 C.ar         1    LIG   0.0000
  13 C13          5.3437     2.5001     5.4550 C.ar         1    LIG   0.0000
  14 C14          6.3505     3.4340     5.2345 C.ar         1    LIG   0.0000
  15 C15          6.7148     3.7429     3.9281 C.ar         1    LIG   0.0000
  16 C16          7.8135     4.7628     3.6766 C.3          1    LIG   0.0000
  17 F17          9.0004     4.1805     3.8213 F            1    LIG   0.0000
  18 F18          7.7013     5.2395     2.4401 F            1    LIG   0.0000
  19 F19          7.7000     5.7607     4.5485 F            1    LIG   0.0000
  20 C20          6.0881     3.1321     2.8470 C.ar         1    LIG   0.0000
  21 C21          5.1931     1.0066     1.0107 C.2          1    LIG   0.0000
  22 C22          6.7133     1.0229     1.0387 C.3          1    LIG   0.0000
  23 C23          4.5699     0.3993    -0.0468 C.2          1    LIG   0.0000
  24 C24          3.1507     0.3838    -0.0732 C.2          1    LIG   0.0000
  25 O25          2.5630    -0.1494    -1.0014 O.2          1    LIG   0.0000
  26 C26         -1.8366     3.2042     0.4185 C.ar         1    LIG   0.0000
  27 C27         -1.2131     4.2854    -0.1970 C.ar         1    LIG   0.0000
  28 C28         -1.9538     5.3049    -0.7839 C.ar         1    LIG   0.0000
  29 C29         -3.3408     5.2198    -0.7385 C.ar         1    LIG   0.0000
  30 N30         -3.9278     4.1720    -0.1414 N.ar         1    LIG   0.0000
  31 C31         -3.2292     3.1755     0.4322 C.ar         1    LIG   0.0000
  32 C32         -3.8671     2.1015     1.0492 C.ar         1    LIG   0.0000
  33 C33         -5.3846     2.0061     1.1039 C.3          1    LIG   0.0000
  34 H           -3.1088    -0.7240     2.6726 H            1    LIG   0.0000
  35 H           -4.3752     0.2285     3.0671 H            1    LIG   0.0000
  36 H           -4.3753    -0.5850     1.6512 H            1    LIG   0.0000
  37 H           -1.2091     0.3847     2.0340 H            1    LIG   0.0000
  38 H            0.8150     3.0525     1.0049 H            1    LIG   0.0000
  39 H            3.9813     1.2054     4.5533 H            1    LIG   0.0000
  40 H            5.0766     2.2739     6.3918 H            1    LIG   0.0000
  41 H            6.8068     3.8780     6.0057 H            1    LIG   0.0000
  42 H            6.3550     3.3587     1.9103 H            1    LIG   0.0000
  43 H            7.0666     0.5572     0.2273 H            1    LIG   0.0000
  44 H            7.0364     1.9693     1.0470 H            1    LIG   0.0000
  45 H            7.0366     0.5531     1.8600 H            1    LIG   0.0000
  46 H            5.1010    -0.0225    -0.7817 H            1    LIG   0.0000
  47 H           -0.2143     4.3298    -0.2174 H            1    LIG   0.0000
  48 H           -1.5011     6.0788    -1.2269 H            1    LIG   0.0000
  49 H           -3.9002     5.9390    -1.1506 H            1    LIG   0.0000
  50 H           -5.6489     1.1699     1.5844 H            1    LIG   0.0000
  51 H           -5.7511     2.7997     1.5897 H            1    LIG   0.0000
  52 H           -5.7511     1.9861     0.1737 H            1    LIG   0.0000
@<TRIPOS>BOND
   1        1        2 1
   2        2        3 ar
   3        3        4 ar
   4        4        5 1
   5        5        6 am
   6        6        7 2
   7        6        8 1
   8        8        9 2
   9        9       10 1
  10       10       11 1
  11       11       12 ar
  12       12       13 ar
  13       13       14 ar
  14       14       15 ar
  15       15       16 1
  16       16       17 1
  17       16       18 1
  18       16       19 1
  19       15       20 ar
  20       20       11 ar
  21       10       21 1
  22       21       22 1
  23       21       23 2
  24       23       24 1
  25       24        8 1
  26       24       25 2
  27        4       26 ar
  28       26       27 ar
  29       27       28 ar
  30       28       29 ar
  31       29       30 ar
  32       30       31 ar
  33       31       26 ar
  34       31       32 ar
  35       32        2 ar
  36       32       33 1
  37        1       34 1
  38        1       35 1
  39        1       36 1
  40        3       37 1
  41        5       38 1
  42       12       39 1
  43       13       40 1
  44       14       41 1
  45       20       42 1
  46       22       43 1
  47       22       44 1
  48       22       45 1
  49       23       46 1
  50       27       47 1
  51       28       48 1
  52       29       49 1
  53       33       50 1
  54       33       51 1
  55       33       52 1

@<TRIPOS>MOLECULE

  52   55
SMALL
USER_CHARGES
@<TRIPOS>ATOM
   1 C1          -3.8048    -0.0937    -0.3224 C.3          1    LIG   0.0000
   2 C2          -3.1283     1.0837     0.3606 C.ar         1    LIG   0.0000
   3 C3          -1.7390     1.1254     0.3849 C.ar         1    LIG   0.0000
   4 C4          -1.0861     2.1865     1.0029 C.ar         1    LIG   0.0000
   5 N5           0.3150     2.1865     1.0029 N.am         1    LIG   0.0000
   6 C6           1.0000     1.0000     1.0000 C.2          1    LIG   0.0000
   7 O7           0.4000    -0.0392     0.9975 O.2          1    LIG   0.0000
   8 C8           2.4507     1.0000     1.0000 C.2          1    LIG   0.0000
   9 N9           3.1255     0.4343     0.0147 N.2          1    LIG   0.0000
  10 N10          4.4471     0.4200    -0.0096 N.pl3        1    LIG   0.0000
  11 C11          5.0843    -0.2009    -1.0907 C.ar         1    LIG   0.0000
  12 C12          4.7030    -1.4852    -1.4658 C.ar         1    LIG   0.0000
  13 C13          5.3432    -2.0921    -2.5410 C.ar         1    LIG   0.0000
  14 C14          6.3499    -1.4310    -3.2366 C.ar         1    LIG   0.0000
  15 C15          6.7150    -0.1473    -2.8444 C.ar         1    LIG   0.0000
  16 C16          7.8145     0.5834    -3.5978 C.3          1    LIG   0.0000
  17 F17          7.8371     0.1687    -4.8613 F            1    LIG   0.0000
  18 F18          7.5802     1.8921    -3.5649 F            1    LIG   0.0000
  19 F19          8.9882     0.3286    -3.0265 F            1    LIG   0.0000
  20 C20          6.0886     0.4785    -1.7718 C.ar         1    LIG   0.0000
  21 C21          5.1931     0.9934     0.9893 C.2          1    LIG   0.0000
  22 C22          6.7133     0.9771     0.9613 C.3          1    LIG   0.0000
  23 C23          4.5699     1.6007     2.0468 C.2          1    LIG   0.0000
  24 C24          3.1507     1.6162     2.0732 C.2          1    LIG   0.0000
  25 O25          2.5630     2.1494     3.0014 O.2          1    LIG   0.0000
  26 C26         -1.8366     3.2014     1.5921 C.ar         1    LIG   0.0000
  27 C27         -1.2131     4.2750     2.2207 C.ar         1    LIG   0.0000
  28 C28         -1.9538     5.2930     2.8101 C.ar         1    LIG   0.0000
  29 C29         -3.3408     5.2111     2.7591 C.ar         1    LIG   0.0000
  30 N30         -3.9278     4.1702     2.1503 N.ar         1    LIG   0.0000
  31 C31         -3.2292     3.1752     1.5740 C.ar         1    LIG   0.0000
  32 C32         -3.8671     2.1038     0.9525 C.ar         1    LIG   0.0000
  33 C33         -5.3846     2.0087     0.8972 C.3          1    LIG   0.0000
  34 H           -3.1088    -0.7148    -0.6828 H            1    LIG   0.0000
  35 H           -4.3752    -0.5802     0.3394 H            1    LIG   0.0000
  36 H           -4.3753     0.2393    -1.0731 H            1    LIG   0.0000
  37 H           -1.2091     0.3926    -0.0419 H            1    LIG   0.0000
  38 H            0.8150     3.0525     1.0049 H            1    LIG   0.0000
  39 H            3.9793    -1.9648    -0.9696 H            1    LIG   0.0000
  40 H            5.0764    -3.0153    -2.8174 H            1    LIG   0.0000
  41 H            6.8056    -1.8730    -4.0092 H            1    LIG   0.0000
  42 H            6.3558     1.4016    -1.4951 H            1    LIG   0.0000
  43 H            7.0666     1.4428     1.7727 H            1    LIG   0.0000
  44 H            7.0364     0.0307     0.9530 H            1    LIG   0.0000
  45 H            7.0366     1.4469     0.1400 H            1    LIG   0.0000
  46 H            5.1010     2.0225     2.7817 H            1    LIG   0.0000
  47 H           -0.2143     4.3149     2.2489 H            1    LIG   0.0000
  48 H           -1.5011     6.0636     3.2588 H            1    LIG   0.0000
  49 H           -3.9002     5.9276     3.1759 H            1    LIG   0.0000
  50 H           -5.6489     1.1745     0.4133 H            1    LIG   0.0000
  51 H           -5.7511     1.9849     1.8273 H            1    LIG   0.0000
  52 H           -5.7511     2.8043     0.4148 H            1    LIG   0.0000
@<TRIPOS>BOND
   1        1        2 1
   2        2        3 ar
   3        3        4 ar
   4        4        5 1
   5        5        6 am
   6        6        7 2
   7        6        8 1
   8        8        9 2
   9        9       10 1
  10       10       11 1
  11       11       12 ar
  12       12       13 ar
  13       13       14 ar
  14       14       15 ar
  15       15       16 1
  16       16       17 1
  17       16       18 1
  18       16       19 1
  19       15       20 ar
  20       20       11 ar
  21       10       21 1
  22       21       22 1
  23       21       23 2
  24       23       24 1
  25       24        8 1
  26       24       25 2
  27        4       26 ar
  28       26       27 ar
  29       27       28 ar
  30       28       29 ar
  31       29       30 ar
  32       30       31 ar
  33       31       26 ar
  34       31       32 ar
  35       32        2 ar
  36       32       33 1
  37        1       34 1
  38        1       35 1
  39        1       36 1
  40        3       37 1
  41        5       38 1
  42       12       39 1
  43       13       40 1
  44       14       41 1
  45       20       42 1
  46       22       43 1
  47       22       44 1
  48       22       45 1
  49       23       46 1
  50       27       47 1
  51       28       48 1
  52       29       49 1
  53       33       50 1
  54       33       51 1
  55       33       52 1

@<TRIPOS>MOLECULE

  52   55
SMALL
USER_CHARGES
@<TRIPOS>ATOM
   1 C1          -3.8048    -0.1013     2.3149 C.3          1    LIG   0.0000
   2 C2          -3.1283     1.0789     1.6367 C.ar         1    LIG   0.0000
   3 C3          -1.7390     1.1208     1.6128 C.ar         1    LIG   0.0000
   4 C4          -1.0861     2.1865     1.0029 C.ar         1    LIG   0.0000
   5 N5           0.3150     2.1865     1.0029 N.am         1    LIG   0.0000
   6 C6           1.0000     1.0000     1.0000 C.2          1    LIG   0.0000
   7 O7           0.4000    -0.0392     0.9975 O.2          1    LIG   0.0000
   8 C8           2.4507     1.0000     1.0000 C.2          1    LIG   0.0000
   9 N9           3.1255     0.4343     0.0147 N.2          1    LIG   0.0000
  10 N10          4.4471     0.4200    -0.0096 N.pl3        1    LIG   0.0000
  11 C11          5.0843    -0.2009    -1.0907 C.ar         1    LIG   0.0000
  12 C12          4.7030    -1.4852    -1.4658 C.ar         1    LIG   0.0000
  13 C13          5.3432    -2.0921    -2.5410 C.ar         1    LIG   0.0000
  14 C14          6.3499    -1.4310    -3.2366 C.ar         1    LIG   0.0000
  15 C15          6.7150    -0.1473    -2.8444 C.ar         1    LIG   0.0000
  16 C16          7.8145     0.5834    -3.5978 C.3          1    LIG   0.0000
  17 F17          7.8371     0.1687    -4.8613 F            1    LIG   0.0000
  18 F18          7.5802     1.8921    -3.5649 F            1    LIG   0.0000
  19 F19          8.9882     0.3286    -3.0265 F            1    LIG   0.0000
  20 C20          6.0886     0.4785    -1.7718 C.ar         1    LIG   0.0000
  21 C21          5.1931     0.9934     0.9893 C.2          1    LIG   0.0000
  22 C22          6.7133     0.9771     0.9613 C.3          1    LIG   0.0000
  23 C23          4.5699     1.6007     2.0468 C.2          1    LIG   0.0000
  24 C24          3.1507     1.6162     2.0732 C.2          1    LIG   0.0000
  25 O25          2.5630     2.1494     3.0014 O.2          1    LIG   0.0000
  26 C26         -1.8366     3.2042     0.4185 C.ar         1    LIG   0.0000
  27 C27         -1.2131     4.2854    -0.1970 C.ar         1    LIG   0.0000
  28 C28         -1.9538     5.3049    -0.7839 C.ar         1    LIG   0.0000
  29 C29         -3.3408     5.2198    -0.7385 C.ar         1    LIG   0.0000
  30 N30         -3.9278     4.1720    -0.1414 N.ar         1    LIG   0.0000
  31 C31         -3.2292     3.1755     0.4322 C.ar         1    LIG   0.0000
  32 C32         -3.8671     2.1015     1.0492 C.ar         1    LIG   0.0000
  33 C33         -5.3846     2.0061     1.1039 C.3          1    LIG   0.0000
  34 H           -3.1088    -0.7240     2.6726 H            1    LIG   0.0000
  35 H           -4.3752     0.2285     3.0671 H            1    LIG   0.0000
  36 H           -4.3753    -0.5850     1.6512 H            1    LIG   0.0000
  37 H           -1.2091     0.3847     2.0340 H            1    LIG   0.0000
  38 H            0.8150     3.0525     1.0049 H            1    LIG   0.0000
  39 H            3.9793    -1.9648    -0.9696 H            1    LIG   0.0000
  40 H            5.0764    -3.0153    -2.8174 H            1    LIG   0.0000
  41 H            6.8056    -1.8730    -4.0092 H            1    LIG   0.0000
  42 H            6.3558     1.4016    -1.4951 H            1    LIG   0.0000
  43 H            7.0666     1.4428     1.7727 H            1    LIG   0.0000
  44 H            7.0364     0.0307     0.9530 H            1    LIG   0.0000
  45 H            7.0366     1.4469     0.1400 H            1    LIG   0.0000
  46 H            5.1010     2.0225     2.7817 H            1    LIG   0.0000
  47 H           -0.2143     4.3298    -0.2174 H            1    LIG   0.0000
  48 H           -1.5011     6.0788    -1.2269 H            1    LIG   0.0000
  49 H           -3.9002     5.9390    -1.1506 H            1    LIG   0.0000
  50 H           -5.6489     1.1699     1.5844 H            1    LIG   0.0000
  51 H           -5.7511     2.7997     1.5897 H            1    LIG   0.0000
  52 H           -5.7511     1.9861     0.1737 H            1    LIG   0.0000
@<TRIPOS>BOND
   1        1        2 1
   2        2        3 ar
   3        3        4 ar
   4        4        5 1
   5        5        6 am
   6        6        7 2
   7        6        8 1
   8        8        9 2
   9        9       10 1
  10       10       11 1
  11       11       12 ar
  12       12       13 ar
  13       13       14 ar
  14       14       15 ar
  15       15       16 1
  16       16       17 1
  17       16       18 1
  18       16       19 1
  19       15       20 ar
  20       20       11 ar
  21       10       21 1
  22       21       22 1
  23       21       23 2
  24       23       24 1
  25       24        8 1
  26       24       25 2
  27        4       26 ar
  28       26       27 ar
  29       27       28 ar
  30       28       29 ar
  31       29       30 ar
  32       30       31 ar
  33       31       26 ar
  34       31       32 ar
  35       32        2 ar
  36       32       33 1
  37        1       34 1
  38        1       35 1
  39        1       36 1
  40        3       37 1
  41        5       38 1
  42       12       39 1
  43       13       40 1
  44       14       41 1
  45       20       42 1
  46       22       43 1
  47       22       44 1
  48       22       45 1
  49       23       46 1
  50       27       47 1
  51       28       48 1
  52       29       49 1
  53       33       50 1
  54       33       51 1
  55       33       52 1

@<TRIPOS>MOLECULE

  52   55
SMALL
USER_CHARGES
@<TRIPOS>ATOM
   1 C1          -3.8048    -0.0937    -0.3224 C.3          1    LIG   0.0000
   2 C2          -3.1283     1.0837     0.3606 C.ar         1    LIG   0.0000
   3 C3          -1.7390     1.1254     0.3849 C.ar         1    LIG   0.0000
   4 C4          -1.0861     2.1865     1.0029 C.ar         1    LIG   0.0000
   5 N5           0.3150     2.1865     1.0029 N.am         1    LIG   0.0000
   6 C6           1.0000     1.0000     1.0000 C.2          1    LIG   0.0000
   7 O7           0.4000    -0.0392     0.9975 O.2          1    LIG   0.0000
   8 C8           2.4507     1.0000     1.0000 C.2          1    LIG   0.0000
   9 N9           3.1255     0.4343     0.0147 N.2          1    LIG   0.0000
  10 N10          4.4471     0.4200    -0.0096 N.pl3        1    LIG   0.0000
  11 C11          5.0843    -0.2009    -1.0907 C.ar         1    LIG   0.0000
  12 C12          4.7040     0.1233    -2.3890 C.ar         1    LIG   0.0000
  13 C13          5.3437    -0.5001    -3.4550 C.ar         1    LIG   0.0000
  14 C14          6.3505    -1.4340    -3.2345 C.ar         1    LIG   0.0000
  15 C15          6.7148    -1.7429    -1.9281 C.ar         1    LIG   0.0000
  16 C16          7.8135    -2.7628    -1.6766 C.3          1    LIG   0.0000
  17 F17          7.8303    -3.6497    -2.6675 F            1    LIG   0.0000
  18 F18          8.9886    -2.1428    -1.6166 F            1    LIG   0.0000
  19 F19          7.5829    -3.3882    -0.5257 F            1    LIG   0.0000
  20 C20          6.0881    -1.1321    -0.8470 C.ar         1    LIG   0.0000
  21 C21          5.1931     0.9934     0.9893 C.2          1    LIG   0.0000
  22 C22          6.7133     0.9771     0.9613 C.3          1    LIG   0.0000
  23 C23          4.5699     1.6007     2.0468 C.2          1    LIG   0.0000
  24 C24          3.1507     1.6162     2.0732 C.2          1    LIG   0.0000
  25 O25          2.5630     2.1494     3.0014 O.2          1    LIG   0.0000
  26 C26         -1.8366     3.2014     1.5921 C.ar         1    LIG   0.0000
  27 C27         -1.2131     4.2750     2.2207 C.ar         1    LIG   0.0000
  28 C28         -1.9538     5.2930     2.8101 C.ar         1    LIG   0.0000
  29 C29         -3.3408     5.2111     2.7591 C.ar         1    LIG   0.0000
  30 N30         -3.9278     4.1702     2.1503 N.ar         1    LIG   0.0000
  31 C31         -3.2292     3.1752     1.5740 C.ar         1    LIG   0.0000
  32 C32         -3.8671     2.1038     0.9525 C.ar         1    LIG   0.0000
  33 C33         -5.3846     2.0087     0.8972 C.3          1    LIG   0.0000
  34 H           -3.1088    -0.7148    -0.6828 H            1    LIG   0.0000
  35 H           -4.3752    -0.5802     0.3394 H            1    LIG   0.0000
  36 H           -4.3753     0.2393    -1.0731 H            1    LIG   0.0000
  37 H           -1.2091     0.3926    -0.0419 H            1    LIG   0.0000
  38 H            0.8150     3.0525     1.0049 H            1    LIG   0.0000
  39 H            3.9813     0.7946    -2.5533 H            1    LIG   0.0000
  40 H            5.0766    -0.2739    -4.3918 H            1    LIG   0.0000
  41 H            6.8068    -1.8780    -4.0057 H            1    LIG   0.0000
  42 H            6.3550    -1.3587     0.0897 H            1    LIG   0.0000
  43 H            7.0666     1.4428     1.7727 H            1    LIG   0.0000
  44 H            7.0364     0.0307     0.9530 H            1    LIG   0.0000
  45 H            7.0366     1.4469     0.1400 H            1    LIG   0.0000
  46 H            5.1010     2.0225     2.7817 H            1    LIG   0.0000
  47 H           -0.2143     4.3149     2.2489 H            1    LIG   0.0000
  48 H           -1.5011     6.0636     3.2588 H            1    LIG   0.0000
  49 H           -3.9002     5.9276     3.1759 H            1    LIG   0.0000
  50 H           -5.6489     1.1745     0.4133 H            1    LIG   0.0000
  51 H           -5.7511     1.9849     1.8273 H            1    LIG   0.0000
  52 H           -5.7511     2.8043     0.4148 H            1    LIG   0.0000
@<TRIPOS>BOND
   1        1        2 1
   2        2        3 ar
   3        3        4 ar
   4        4        5 1
   5        5        6 am
   6        6        7 2
   7        6        8 1
   8        8        9 2
   9        9       10 1
  10       10       11 1
  11       11       12 ar
  12       12       13 ar
  13       13       14 ar
  14       14       15 ar
  15       15       16 1
  16       16       17 1
  17       16       18 1
  18       16       19 1
  19       15       20 ar
  20       20       11 ar
  21       10       21 1
  22       21       22 1
  23       21       23 2
  24       23       24 1
  25       24        8 1
  26       24       25 2
  27        4       26 ar
  28       26       27 ar
  29       27       28 ar
  30       28       29 ar
  31       29       30 ar
  32       30       31 ar
  33       31       26 ar
  34       31       32 ar
  35       32        2 ar
  36       32       33 1
  37        1       34 1
  38        1       35 1
  39        1       36 1
  40        3       37 1
  41        5       38 1
  42       12       39 1
  43       13       40 1
  44       14       41 1
  45       20       42 1
  46       22       43 1
  47       22       44 1
  48       22       45 1
  49       23       46 1
  50       27       47 1
  51       28       48 1
  52       29       49 1
  53       33       50 1
  54       33       51 1
  55       33       52 1

@<TRIPOS>MOLECULE

  52   55
SMALL
USER_CHARGES
@<TRIPOS>ATOM
   1 C1          -3.8048    -0.1013     2.3149 C.3          1    LIG   0.0000
   2 C2          -3.1283     1.0789     1.6367 C.ar         1    LIG   0.0000
   3 C3          -1.7390     1.1208     1.6128 C.ar         1    LIG   0.0000
   4 C4          -1.0861     2.1865     1.0029 C.ar         1    LIG   0.0000
   5 N5           0.3150     2.1865     1.0029 N.am         1    LIG   0.0000
   6 C6           1.0000     1.0000     1.0000 C.2          1    LIG   0.0000
   7 O7           0.4000    -0.0392     0.9975 O.2          1    LIG   0.0000
   8 C8           2.4507     1.0000     1.0000 C.2          1    LIG   0.0000
   9 N9           3.1255     0.4295     1.9826 N.2          1    LIG   0.0000
  10 N10          4.4471     0.4156     2.0071 N.pl3        1    LIG   0.0000
  11 C11          5.0843    -0.2101     3.0853 C.ar         1    LIG   0.0000
  12 C12          4.7030     0.1071     4.3851 C.ar         1    LIG   0.0000
  13 C13          5.3432    -0.5206     5.4483 C.ar         1    LIG   0.0000
  14 C14          6.3499    -1.4535     5.2236 C.ar         1    LIG   0.0000
  15 C15          6.7150    -1.7557     3.9158 C.ar         1    LIG   0.0000
  16 C16          7.8145    -2.7735     3.6597 C.3          1    LIG   0.0000
  17 F17          7.7208    -3.2227     2.4114 F            1    LIG   0.0000
  18 F18          9.0007    -2.1985     3.8362 F            1    LIG   0.0000
  19 F19          7.6839    -3.7899     4.5076 F            1    LIG   0.0000
  20 C20          6.0886    -1.1397     2.8375 C.ar         1    LIG   0.0000
  21 C21          5.1931     0.9940     1.0111 C.2          1    LIG   0.0000
  22 C22          6.7133     0.9780     1.0392 C.3          1    LIG   0.0000
  23 C23          4.5699     1.6062    -0.0437 C.2          1    LIG   0.0000
  24 C24          3.1507     1.6213    -0.0703 C.2          1    LIG   0.0000
  25 O25          2.5630     2.1586    -0.9962 O.2          1    LIG   0.0000
  26 C26         -1.8366     3.2042     0.4185 C.ar         1    LIG   0.0000
  27 C27         -1.2131     4.2854    -0.1970 C.ar         1    LIG   0.0000
  28 C28         -1.9538     5.3049    -0.7839 C.ar         1    LIG   0.0000
  29 C29         -3.3408     5.2198    -0.7385 C.ar         1    LIG   0.0000
  30 N30         -3.9278     4.1720    -0.1414 N.ar         1    LIG   0.0000
  31 C31         -3.2292     3.1755     0.4322 C.ar         1    LIG   0.0000
  32 C32         -3.8671     2.1015     1.0492 C.ar         1    LIG   0.0000
  33 C33         -5.3846     2.0061     1.1039 C.3          1    LIG   0.0000
  34 H           -3.1088    -0.7240     2.6726 H            1    LIG   0.0000
  35 H           -4.3752     0.2285     3.0671 H            1    LIG   0.0000
  36 H           -4.3753    -0.5850     1.6512 H            1    LIG   0.0000
  37 H           -1.2091     0.3847     2.0340 H            1    LIG   0.0000
  38 H            0.8150     3.0525     1.0049 H            1    LIG   0.0000
  39 H            3.9793     0.7767     4.5525 H            1    LIG   0.0000
  40 H            5.0764    -0.2983     6.3861 H            1    LIG   0.0000
  41 H            6.8056    -1.9016     5.9927 H            1    LIG   0.0000
  42 H            6.3558    -1.3616     1.8998 H            1    LIG   0.0000
  43 H            7.0666     1.4477     0.2302 H            1    LIG   0.0000
  44 H            7.0364     1.4440     1.8629 H            1    LIG   0.0000
  45 H            7.0366     0.0317     1.0430 H            1    LIG   0.0000
  46 H            5.1010     2.0317    -0.7764 H            1    LIG   0.0000
  47 H           -0.2143     4.3298    -0.2174 H            1    LIG   0.0000
  48 H           -1.5011     6.0788    -1.2269 H            1    LIG   0.0000
  49 H           -3.9002     5.9390    -1.1506 H            1    LIG   0.0000
  50 H           -5.6489     1.1699     1.5844 H            1    LIG   0.0000
  51 H           -5.7511     2.7997     1.5897 H            1    LIG   0.0000
  52 H           -5.7511     1.9861     0.1737 H            1    LIG   0.0000
@<TRIPOS>BOND
   1        1        2 1
   2        2        3 ar
   3        3        4 ar
   4        4        5 1
   5        5        6 am
   6        6        7 2
   7        6        8 1
   8        8        9 2
   9        9       10 1
  10       10       11 1
  11       11       12 ar
  12       12       13 ar
  13       13       14 ar
  14       14       15 ar
  15       15       16 1
  16       16       17 1
  17       16       18 1
  18       16       19 1
  19       15       20 ar
  20       20       11 ar
  21       10       21 1
  22       21       22 1
  23       21       23 2
  24       23       24 1
  25       24        8 1
  26       24       25 2
  27        4       26 ar
  28       26       27 ar
  29       27       28 ar
  30       28       29 ar
  31       29       30 ar
  32       30       31 ar
  33       31       26 ar
  34       31       32 ar
  35       32        2 ar
  36       32       33 1
  37        1       34 1
  38        1       35 1
  39        1       36 1
  40        3       37 1
  41        5       38 1
  42       12       39 1
  43       13       40 1
  44       14       41 1
  45       20       42 1
  46       22       43 1
  47       22       44 1
  48       22       45 1
  49       23       46 1
  50       27       47 1
  51       28       48 1
  52       29       49 1
  53       33       50 1
  54       33       51 1
  55       33       52 1

@<TRIPOS>MOLECULE

  52   55
SMALL
USER_CHARGES
@<TRIPOS>ATOM
   1 C1          -3.8048    -0.1013     2.3149 C.3          1    LIG   0.0000
   2 C2          -3.1283     1.0789     1.6367 C.ar         1    LIG   0.0000
   3 C3          -1.7390     1.1208     1.6128 C.ar         1    LIG   0.0000
   4 C4          -1.0861     2.1865     1.0029 C.ar         1    LIG   0.0000
   5 N5           0.3150     2.1865     1.0029 N.am         1    LIG   0.0000
   6 C6           1.0000     1.0000     1.0000 C.2          1    LIG   0.0000
   7 O7           0.4000    -0.0392     0.9975 O.2          1    LIG   0.0000
   8 C8           2.4507     1.0000     1.0000 C.2          1    LIG   0.0000
   9 N9           3.1255     0.4295     1.9826 N.2          1    LIG   0.0000
  10 N10          4.4471     0.4156     2.0071 N.pl3        1    LIG   0.0000
  11 C11          5.0843    -0.2101     3.0853 C.ar         1    LIG   0.0000
  12 C12          4.7040    -1.4966     3.4538 C.ar         1    LIG   0.0000
  13 C13          5.3437    -2.1081     4.5266 C.ar         1    LIG   0.0000
  14 C14          6.3505    -1.4502     5.2252 C.ar         1    LIG   0.0000
  15 C15          6.7148    -0.1643     4.8395 C.ar         1    LIG   0.0000
  16 C16          7.8135     0.5634     5.5970 C.3          1    LIG   0.0000
  17 F17          8.4063    -0.2802     6.4371 F            1    LIG   0.0000
  18 F18          8.7101     1.0335     4.7344 F            1    LIG   0.0000
  19 F19          7.2853     1.5735     6.2821 F            1    LIG   0.0000
  20 C20          6.0881     0.4665     3.7700 C.ar         1    LIG   0.0000
  21 C21          5.1931     0.9940     1.0111 C.2          1    LIG   0.0000
  22 C22          6.7133     0.9780     1.0392 C.3          1    LIG   0.0000
  23 C23          4.5699     1.6062    -0.0437 C.2          1    LIG   0.0000
  24 C24          3.1507     1.6213    -0.0703 C.2          1    LIG   0.0000
  25 O25          2.5630     2.1586    -0.9962 O.2          1    LIG   0.0000
  26 C26         -1.8366     3.2042     0.4185 C.ar         1    LIG   0.0000
  27 C27         -1.2131     4.2854    -0.1970 C.ar         1    LIG   0.0000
  28 C28         -1.9538     5.3049    -0.7839 C.ar         1    LIG   0.0000
  29 C29         -3.3408     5.2198    -0.7385 C.ar         1    LIG   0.0000
  30 N30         -3.9278     4.1720    -0.1414 N.ar         1    LIG   0.0000
  31 C31         -3.2292     3.1755     0.4322 C.ar         1    LIG   0.0000
  32 C32         -3.8671     2.1015     1.0492 C.ar         1    LIG   0.0000
  33 C33         -5.3846     2.0061     1.1039 C.3          1    LIG   0.0000
  34 H           -3.1088    -0.7240     2.6726 H            1    LIG   0.0000
  35 H           -4.3752     0.2285     3.0671 H            1    LIG   0.0000
  36 H           -4.3753    -0.5850     1.6512 H            1    LIG   0.0000
  37 H           -1.2091     0.3847     2.0340 H            1    LIG   0.0000
  38 H            0.8150     3.0525     1.0049 H            1    LIG   0.0000
  39 H            3.9813    -1.9746     2.9545 H            1    LIG   0.0000
  40 H            5.0766    -3.0324     4.7992 H            1    LIG   0.0000
  41 H            6.8068    -1.8961     5.9952 H            1    LIG   0.0000
  42 H            6.3550     1.3910     3.4978 H            1    LIG   0.0000
  43 H            7.0666     1.4477     0.2302 H            1    LIG   0.0000
  44 H            7.0364     1.4440     1.8629 H            1    LIG   0.0000
  45 H            7.0366     0.0317     1.0430 H            1    LIG   0.0000
  46 H            5.1010     2.0317    -0.7764 H            1    LIG   0.0000
  47 H           -0.2143     4.3298    -0.2174 H            1    LIG   0.0000
  48 H           -1.5011     6.0788    -1.2269 H            1    LIG   0.0000
  49 H           -3.9002     5.9390    -1.1506 H            1    LIG   0.0000
  50 H           -5.6489     1.1699     1.5844 H            1    LIG   0.0000
  51 H           -5.7511     2.7997     1.5897 H            1    LIG   0.0000
  52 H           -5.7511     1.9861     0.1737 H            1    LIG   0.0000
@<TRIPOS>BOND
   1        1        2 1
   2        2        3 ar
   3        3        4 ar
   4        4        5 1
   5        5        6 am
   6        6        7 2
   7        6        8 1
   8        8        9 2
   9        9       10 1
  10       10       11 1
  11       11       12 ar
  12       12       13 ar
  13       13       14 ar
  14       14       15 ar
  15       15       16 1
  16       16       17 1
  17       16       18 1
  18       16       19 1
  19       15       20 ar
  20       20       11 ar
  21       10       21 1
  22       21       22 1
  23       21       23 2
  24       23       24 1
  25       24        8 1
  26       24       25 2
  27        4       26 ar
  28       26       27 ar
  29       27       28 ar
  30       28       29 ar
  31       29       30 ar
  32       30       31 ar
  33       31       26 ar
  34       31       32 ar
  35       32        2 ar
  36       32       33 1
  37        1       34 1
  38        1       35 1
  39        1       36 1
  40        3       37 1
  41        5       38 1
  42       12       39 1
  43       13       40 1
  44       14       41 1
  45       20       42 1
  46       22       43 1
  47       22       44 1
  48       22       45 1
  49       23       46 1
  50       27       47 1
  51       28       48 1
  52       29       49 1
  53       33       50 1
  54       33       51 1
  55       33       52 1

@<TRIPOS>MOLECULE

  52   55
SMALL
USER_CHARGES
@<TRIPOS>ATOM
   1 C1          -3.8048     0.8744    -1.2849 C.3          1    LIG   0.0000
   2 C2          -3.1283     1.5526    -0.1047 C.ar         1    LIG   0.0000
   3 C3          -1.7390     1.5765    -0.0628 C.ar         1    LIG   0.0000
   4 C4          -1.0861     2.1865     1.0029 C.ar         1    LIG   0.0000
   5 N5           0.3150     2.1865     1.0029 N.am         1    LIG   0.0000
   6 C6           1.0000     1.0000     1.0000 C.2          1    LIG   0.0000
   7 O7           0.4000    -0.0392     0.9975 O.2          1    LIG   0.0000
   8 C8           2.4507     1.0000     1.0000 C.2          1    LIG   0.0000
   9 N9           3.1255     0.4295     1.9826 N.2          1    LIG   0.0000
  10 N10          4.4471     0.4156     2.0071 N.pl3        1    LIG   0.0000
  11 C11          5.0843    -0.2101     3.0853 C.ar         1    LIG   0.0000
  12 C12          4.7040    -1.4966     3.4538 C.ar         1    LIG   0.0000
  13 C13          5.3437    -2.1081     4.5266 C.ar         1    LIG   0.0000
  14 C14          6.3505    -1.4502     5.2252 C.ar         1    LIG   0.0000
  15 C15          6.7148    -0.1643     4.8395 C.ar         1    LIG   0.0000
  16 C16          7.8135     0.5634     5.5970 C.3          1    LIG   0.0000
  17 F17          8.4063    -0.2802     6.4371 F            1    LIG   0.0000
  18 F18          8.7101     1.0335     4.7344 F            1    LIG   0.0000
  19 F19          7.2853     1.5735     6.2821 F            1    LIG   0.0000
  20 C20          6.0881     0.4665     3.7700 C.ar         1    LIG   0.0000
  21 C21          5.1931     0.9940     1.0111 C.2          1    LIG   0.0000
  22 C22          6.7133     0.9780     1.0392 C.3          1    LIG   0.0000
  23 C23          4.5699     1.6062    -0.0437 C.2          1    LIG   0.0000
  24 C24          3.1507     1.6213    -0.0703 C.2          1    LIG   0.0000
  25 O25          2.5630     2.1586    -0.9962 O.2          1    LIG   0.0000
  26 C26         -1.8366     2.7708     2.0206 C.ar         1    LIG   0.0000
  27 C27         -1.2131     3.3863     3.1018 C.ar         1    LIG   0.0000
  28 C28         -1.9538     3.9732     4.1213 C.ar         1    LIG   0.0000
  29 C29         -3.3408     3.9278     4.0362 C.ar         1    LIG   0.0000
  30 N30         -3.9278     3.3307     2.9885 N.ar         1    LIG   0.0000
  31 C31         -3.2292     2.7571     1.9919 C.ar         1    LIG   0.0000
  32 C32         -3.8671     2.1401     0.9179 C.ar         1    LIG   0.0000
  33 C33         -5.3846     2.0854     0.8225 C.3          1    LIG   0.0000
  34 H           -3.1088     0.5167    -1.9076 H            1    LIG   0.0000
  35 H           -4.3752     0.1222    -0.9551 H            1    LIG   0.0000
  36 H           -4.3753     1.5381    -1.7686 H            1    LIG   0.0000
  37 H           -1.2091     1.1553    -0.7989 H            1    LIG   0.0000
  38 H            0.8150     3.0525     1.0049 H            1    LIG   0.0000
  39 H            3.9813    -1.9746     2.9545 H            1    LIG   0.0000
  40 H            5.0766    -3.0324     4.7992 H            1    LIG   0.0000
  41 H            6.8068    -1.8961     5.9952 H            1    LIG   0.0000
  42 H            6.3550     1.3910     3.4978 H            1    LIG   0.0000
  43 H            7.0666     1.4477     0.2302 H            1    LIG   0.0000
  44 H            7.0364     1.4440     1.8629 H            1    LIG   0.0000
  45 H            7.0366     0.0317     1.0430 H            1    LIG   0.0000
  46 H            5.1010     2.0317    -0.7764 H            1    LIG   0.0000
  47 H           -0.2143     3.4067     3.1462 H            1    LIG   0.0000
  48 H           -1.5011     4.4162     4.8952 H            1    LIG   0.0000
  49 H           -3.9002     4.3399     4.7554 H            1    LIG   0.0000
  50 H           -5.6489     1.6049    -0.0137 H            1    LIG   0.0000
  51 H           -5.7511     1.5996     1.6161 H            1    LIG   0.0000
  52 H           -5.7511     3.0156     0.8025 H            1    LIG   0.0000
@<TRIPOS>BOND
   1        1        2 1
   2        2        3 ar
   3        3        4 ar
   4        4        5 1
   5        5        6 am
   6        6        7 2
   7        6        8 1
   8        8        9 2
   9        9       10 1
  10       10       11 1
  11       11       12 ar
  12       12       13 ar
  13       13       14 ar
  14       14       15 ar
  15       15       16 1
  16       16       17 1
  17       16       18 1
  18       16       19 1
  19       15       20 ar
  20       20       11 ar
  21       10       21 1
  22       21       22 1
  23       21       23 2
  24       23       24 1
  25       24        8 1
  26       24       25 2
  27        4       26 ar
  28       26       27 ar
  29       27       28 ar
  30       28       29 ar
  31       29       30 ar
  32       30       31 ar
  33       31       26 ar
  34       31       32 ar
  35       32        2 ar
  36       32       33 1
  37        1       34 1
  38        1       35 1
  39        1       36 1
  40        3       37 1
  41        5       38 1
  42       12       39 1
  43       13       40 1
  44       14       41 1
  45       20       42 1
  46       22       43 1
  47       22       44 1
  48       22       45 1
  49       23       46 1
  50       27       47 1
  51       28       48 1
  52       29       49 1
  53       33       50 1
  54       33       51 1
  55       33       52 1

