@<TRIPOS>MOLECULE
*****
 52 55 0 0 0
SMALL
USER_CHARGES

@<TRIPOS>ATOM
      1 C1         -3.8048   -0.1013    2.3149 C.3     1  LIG1        0.0000
      2 C2         -3.1283    1.0789    1.6367 C.3     1  LIG1        0.0000
      3 C3         -1.7390    1.1208    1.6128 C.3     1  LIG1        0.0000
      4 C4         -1.0861    2.1865    1.0029 C.3     1  LIG1        0.0000
      5 N5          0.3150    2.1865    1.0029 N.am    1  LIG1        0.0000
      6 C6          1.0000    1.0000    1.0000 C.2     1  LIG1        0.0000
      7 O7          0.4000   -0.0392    0.9975 O.2     1  LIG1        0.0000
      8 C8          2.4507    1.0000    1.0000 C.2     1  LIG1        0.0000
      9 N9          3.1255    0.4295    1.9826 N.2     1  LIG1        0.0000
     10 N10         4.4471    0.4156    2.0071 N.pl3   1  LIG1        0.0000
     11 C11         5.0843   -0.2101    3.0853 C.3     1  LIG1        0.0000
     12 C12         4.7030    0.1071    4.3851 C.3     1  LIG1        0.0000
     13 C13         5.3432   -0.5206    5.4483 C.3     1  LIG1        0.0000
     14 C14         6.3499   -1.4535    5.2236 C.3     1  LIG1        0.0000
     15 C15         6.7150   -1.7557    3.9158 C.3     1  LIG1        0.0000
     16 C16         7.8145   -2.7735    3.6597 C.3     1  LIG1        0.0000
     17 F17         7.7208   -3.2227    2.4114 F       1  LIG1        0.0000
     18 F18         9.0007   -2.1985    3.8362 F       1  LIG1        0.0000
     19 F19         7.6839   -3.7899    4.5076 F       1  LIG1        0.0000
     20 C20         6.0886   -1.1397    2.8375 C.3     1  LIG1        0.0000
     21 C21         5.1931    0.9940    1.0111 C.2     1  LIG1        0.0000
     22 C22         6.7133    0.9780    1.0392 C.3     1  LIG1        0.0000
     23 C23         4.5699    1.6062   -0.0437 C.2     1  LIG1        0.0000
     24 C24         3.1507    1.6213   -0.0703 C.2     1  LIG1        0.0000
     25 O25         2.5630    2.1586   -0.9962 O.2     1  LIG1        0.0000
     26 C26        -1.8366    3.2042    0.4185 C.3     1  LIG1        0.0000
     27 C27        -1.2131    4.2854   -0.1970 C.3     1  LIG1        0.0000
     28 C28        -1.9538    5.3049   -0.7839 C.3     1  LIG1        0.0000
     29 C29        -3.3408    5.2198   -0.7385 C.3     1  LIG1        0.0000
     30 N30        -3.9278    4.1720   -0.1414 N.pl3   1  LIG1        0.0000
     31 C31        -3.2292    3.1755    0.4322 C.3     1  LIG1        0.0000
     32 C32        -3.8671    2.1015    1.0492 C.3     1  LIG1        0.0000
     33 C33        -5.3846    2.0061    1.1039 C.3     1  LIG1        0.0000
     34 H          -3.1088   -0.7240    2.6726 H       1  LIG1        0.0000
     35 H          -4.3752    0.2285    3.0671 H       1  LIG1        0.0000
     36 H          -4.3753   -0.5850    1.6512 H       1  LIG1        0.0000
     37 H          -1.2091    0.3847    2.0340 H       1  LIG1        0.0000
     38 H           0.8150    3.0525    1.0049 H       1  LIG1        0.0000
     39 H           3.9793    0.7767    4.5525 H       1  LIG1        0.0000
     40 H           5.0764   -0.2983    6.3861 H       1  LIG1        0.0000
     41 H           6.8056   -1.9016    5.9927 H       1  LIG1        0.0000
     42 H           6.3558   -1.3616    1.8998 H       1  LIG1        0.0000
     43 H           7.0666    1.4477    0.2302 H       1  LIG1        0.0000
     44 H           7.0364    1.4440    1.8629 H       1  LIG1        0.0000
     45 H           7.0366    0.0317    1.0430 H       1  LIG1        0.0000
     46 H           5.1010    2.0317   -0.7764 H       1  LIG1        0.0000
     47 H          -0.2143    4.3298   -0.2174 H       1  LIG1        0.0000
     48 H          -1.5011    6.0788   -1.2269 H       1  LIG1        0.0000
     49 H          -3.9002    5.9390   -1.1506 H       1  LIG1        0.0000
     50 H          -5.6489    1.1699    1.5844 H       1  LIG1        0.0000
     51 H          -5.7511    2.7997    1.5897 H       1  LIG1        0.0000
     52 H          -5.7511    1.9861    0.1737 H       1  LIG1        0.0000
@<TRIPOS>BOND
     1     1     2    1
     2     2     3   ar
     3     3     4   ar
     4     4     5    1
     5     5     6   am
     6     6     7    2
     7     6     8    1
     8     8     9    2
     9     9    10    1
    10    10    11    1
    11    11    12   ar
    12    12    13   ar
    13    13    14   ar
    14    14    15   ar
    15    15    16    1
    16    16    17    1
    17    16    18    1
    18    16    19    1
    19    15    20   ar
    20    20    11   ar
    21    10    21    1
    22    21    22    1
    23    21    23    2
    24    23    24    1
    25    24     8    1
    26    24    25    2
    27     4    26   ar
    28    26    27   ar
    29    27    28   ar
    30    28    29   ar
    31    29    30   ar
    32    30    31   ar
    33    31    26   ar
    34    31    32   ar
    35    32     2   ar
    36    32    33    1
    37     1    34    1
    38     1    35    1
    39     1    36    1
    40     3    37    1
    41     5    38    1
    42    12    39    1
    43    13    40    1
    44    14    41    1
    45    20    42    1
    46    22    43    1
    47    22    44    1
    48    22    45    1
    49    23    46    1
    50    27    47    1
    51    28    48    1
    52    29    49    1
    53    33    50    1
    54    33    51    1
    55    33    52    1
