@<TRIPOS>MOLECULE
*****
 52 55 0 0 0
SMALL
USER_CHARGES

@<TRIPOS>ATOM
      1 C1         -3.8048    0.8744   -1.2849 C.3     1  LIG1        0.0000
      2 C2         -3.1283    1.5526   -0.1047 C.3     1  LIG1        0.0000
      3 C3         -1.7390    1.5765   -0.0628 C.3     1  LIG1        0.0000
      4 C4         -1.0861    2.1865    1.0029 C.3     1  LIG1        0.0000
      5 N5          0.3150    2.1865    1.0029 N.am    1  LIG1        0.0000
      6 C6          1.0000    1.0000    1.0000 C.2     1  LIG1        0.0000
      7 O7          0.4000   -0.0392    0.9975 O.2     1  LIG1        0.0000
      8 C8          2.4507    1.0000    1.0000 C.2     1  LIG1        0.0000
      9 N9          3.1255    0.4295    1.9826 N.2     1  LIG1        0.0000
     10 N10         4.4471    0.4156    2.0071 N.pl3   1  LIG1        0.0000
     11 C11         5.0843   -0.2101    3.0853 C.3     1  LIG1        0.0000
     12 C12         4.7040   -1.4966    3.4538 C.3     1  LIG1        0.0000
     13 C13         5.3437   -2.1081    4.5266 C.3     1  LIG1        0.0000
     14 C14         6.3505   -1.4502    5.2252 C.3     1  LIG1        0.0000
     15 C15         6.7148   -0.1643    4.8395 C.3     1  LIG1        0.0000
     16 C16         7.8135    0.5634    5.5970 C.3     1  LIG1        0.0000
     17 F17         8.4063   -0.2802    6.4371 F       1  LIG1        0.0000
     18 F18         8.7101    1.0335    4.7344 F       1  LIG1        0.0000
     19 F19         7.2853    1.5735    6.2821 F       1  LIG1        0.0000
     20 C20         6.0881    0.4665    3.7700 C.3     1  LIG1        0.0000
     21 C21         5.1931    0.9940    1.0111 C.2     1  LIG1        0.0000
     22 C22         6.7133    0.9780    1.0392 C.3     1  LIG1        0.0000
     23 C23         4.5699    1.6062   -0.0437 C.2     1  LIG1        0.0000
     24 C24         3.1507    1.6213   -0.0703 C.2     1  LIG1        0.0000
     25 O25         2.5630    2.1586   -0.9962 O.2     1  LIG1        0.0000
     26 C26        -1.8366    2.7708    2.0206 C.3     1  LIG1        0.0000
     27 C27        -1.2131    3.3863    3.1018 C.3     1  LIG1        0.0000
     28 C28        -1.9538    3.9732    4.1213 C.3     1  LIG1        0.0000
     29 C29        -3.3408    3.9278    4.0362 C.3     1  LIG1        0.0000
     30 N30        -3.9278    3.3307    2.9885 N.pl3   1  LIG1        0.0000
     31 C31        -3.2292    2.7571    1.9919 C.3     1  LIG1        0.0000
     32 C32        -3.8671    2.1401    0.9179 C.3     1  LIG1        0.0000
     33 C33        -5.3846    2.0854    0.8225 C.3     1  LIG1        0.0000
     34 H          -3.1088    0.5167   -1.9076 H       1  LIG1        0.0000
     35 H          -4.3752    0.1222   -0.9551 H       1  LIG1        0.0000
     36 H          -4.3753    1.5381   -1.7686 H       1  LIG1        0.0000
     37 H          -1.2091    1.1553   -0.7989 H       1  LIG1        0.0000
     38 H           0.8150    3.0525    1.0049 H       1  LIG1        0.0000
     39 H           3.9813   -1.9746    2.9545 H       1  LIG1        0.0000
     40 H           5.0766   -3.0324    4.7992 H       1  LIG1        0.0000
     41 H           6.8068   -1.8961    5.9952 H       1  LIG1        0.0000
     42 H           6.3550    1.3910    3.4978 H       1  LIG1        0.0000
     43 H           7.0666    1.4477    0.2302 H       1  LIG1        0.0000
     44 H           7.0364    1.4440    1.8629 H       1  LIG1        0.0000
     45 H           7.0366    0.0317    1.0430 H       1  LIG1        0.0000
     46 H           5.1010    2.0317   -0.7764 H       1  LIG1        0.0000
     47 H          -0.2143    3.4067    3.1462 H       1  LIG1        0.0000
     48 H          -1.5011    4.4162    4.8952 H       1  LIG1        0.0000
     49 H          -3.9002    4.3399    4.7554 H       1  LIG1        0.0000
     50 H          -5.6489    1.6049   -0.0137 H       1  LIG1        0.0000
     51 H          -5.7511    1.5996    1.6161 H       1  LIG1        0.0000
     52 H          -5.7511    3.0156    0.8025 H       1  LIG1        0.0000
@<TRIPOS>BOND
     1     1     2    1
     2     2     3   ar
     3     3     4   ar
     4     4     5    1
     5     5     6   am
     6     6     7    2
     7     6     8    1
     8     8     9    2
     9     9    10    1
    10    10    11    1
    11    11    12   ar
    12    12    13   ar
    13    13    14   ar
    14    14    15   ar
    15    15    16    1
    16    16    17    1
    17    16    18    1
    18    16    19    1
    19    15    20   ar
    20    20    11   ar
    21    10    21    1
    22    21    22    1
    23    21    23    2
    24    23    24    1
    25    24     8    1
    26    24    25    2
    27     4    26   ar
    28    26    27   ar
    29    27    28   ar
    30    28    29   ar
    31    29    30   ar
    32    30    31   ar
    33    31    26   ar
    34    31    32   ar
    35    32     2   ar
    36    32    33    1
    37     1    34    1
    38     1    35    1
    39     1    36    1
    40     3    37    1
    41     5    38    1
    42    12    39    1
    43    13    40    1
    44    14    41    1
    45    20    42    1
    46    22    43    1
    47    22    44    1
    48    22    45    1
    49    23    46    1
    50    27    47    1
    51    28    48    1
    52    29    49    1
    53    33    50    1
    54    33    51    1
    55    33    52    1
