@<TRIPOS>MOLECULE
*****
 52 55 0 0 0
SMALL
USER_CHARGES

@<TRIPOS>ATOM
      1 C1         -3.8048   -0.0937   -0.3224 C.3     1  LIG1        0.0000
      2 C2         -3.1283    1.0837    0.3606 C.3     1  LIG1        0.0000
      3 C3         -1.7390    1.1254    0.3849 C.3     1  LIG1        0.0000
      4 C4         -1.0861    2.1865    1.0029 C.3     1  LIG1        0.0000
      5 N5          0.3150    2.1865    1.0029 N.am    1  LIG1        0.0000
      6 C6          1.0000    1.0000    1.0000 C.2     1  LIG1        0.0000
      7 O7          0.4000   -0.0392    0.9975 O.2     1  LIG1        0.0000
      8 C8          2.4507    1.0000    1.0000 C.2     1  LIG1        0.0000
      9 N9          3.1255    0.4343    0.0147 N.2     1  LIG1        0.0000
     10 N10         4.4471    0.4200   -0.0096 N.pl3   1  LIG1        0.0000
     11 C11         5.0843   -0.2009   -1.0907 C.3     1  LIG1        0.0000
     12 C12         4.7040    0.1233   -2.3890 C.3     1  LIG1        0.0000
     13 C13         5.3437   -0.5001   -3.4550 C.3     1  LIG1        0.0000
     14 C14         6.3505   -1.4340   -3.2345 C.3     1  LIG1        0.0000
     15 C15         6.7148   -1.7429   -1.9281 C.3     1  LIG1        0.0000
     16 C16         7.8135   -2.7628   -1.6766 C.3     1  LIG1        0.0000
     17 F17         7.8303   -3.6497   -2.6675 F       1  LIG1        0.0000
     18 F18         8.9886   -2.1428   -1.6166 F       1  LIG1        0.0000
     19 F19         7.5829   -3.3882   -0.5257 F       1  LIG1        0.0000
     20 C20         6.0881   -1.1321   -0.8470 C.3     1  LIG1        0.0000
     21 C21         5.1931    0.9934    0.9893 C.2     1  LIG1        0.0000
     22 C22         6.7133    0.9771    0.9613 C.3     1  LIG1        0.0000
     23 C23         4.5699    1.6007    2.0468 C.2     1  LIG1        0.0000
     24 C24         3.1507    1.6162    2.0732 C.2     1  LIG1        0.0000
     25 O25         2.5630    2.1494    3.0014 O.2     1  LIG1        0.0000
     26 C26        -1.8366    3.2014    1.5921 C.3     1  LIG1        0.0000
     27 C27        -1.2131    4.2750    2.2207 C.3     1  LIG1        0.0000
     28 C28        -1.9538    5.2930    2.8101 C.3     1  LIG1        0.0000
     29 C29        -3.3408    5.2111    2.7591 C.3     1  LIG1        0.0000
     30 N30        -3.9278    4.1702    2.1503 N.pl3   1  LIG1        0.0000
     31 C31        -3.2292    3.1752    1.5740 C.3     1  LIG1        0.0000
     32 C32        -3.8671    2.1038    0.9525 C.3     1  LIG1        0.0000
     33 C33        -5.3846    2.0087    0.8972 C.3     1  LIG1        0.0000
     34 H          -3.1088   -0.7148   -0.6828 H       1  LIG1        0.0000
     35 H          -4.3752   -0.5802    0.3394 H       1  LIG1        0.0000
     36 H          -4.3753    0.2393   -1.0731 H       1  LIG1        0.0000
     37 H          -1.2091    0.3926   -0.0419 H       1  LIG1        0.0000
     38 H           0.8150    3.0525    1.0049 H       1  LIG1        0.0000
     39 H           3.9813    0.7946   -2.5533 H       1  LIG1        0.0000
     40 H           5.0766   -0.2739   -4.3918 H       1  LIG1        0.0000
     41 H           6.8068   -1.8780   -4.0057 H       1  LIG1        0.0000
     42 H           6.3550   -1.3587    0.0897 H       1  LIG1        0.0000
     43 H           7.0666    1.4428    1.7727 H       1  LIG1        0.0000
     44 H           7.0364    0.0307    0.9530 H       1  LIG1        0.0000
     45 H           7.0366    1.4469    0.1400 H       1  LIG1        0.0000
     46 H           5.1010    2.0225    2.7817 H       1  LIG1        0.0000
     47 H          -0.2143    4.3149    2.2489 H       1  LIG1        0.0000
     48 H          -1.5011    6.0636    3.2588 H       1  LIG1        0.0000
     49 H          -3.9002    5.9276    3.1759 H       1  LIG1        0.0000
     50 H          -5.6489    1.1745    0.4133 H       1  LIG1        0.0000
     51 H          -5.7511    1.9849    1.8273 H       1  LIG1        0.0000
     52 H          -5.7511    2.8043    0.4148 H       1  LIG1        0.0000
@<TRIPOS>BOND
     1     1     2    1
     2     2     3   ar
     3     3     4   ar
     4     4     5    1
     5     5     6   am
     6     6     7    2
     7     6     8    1
     8     8     9    2
     9     9    10    1
    10    10    11    1
    11    11    12   ar
    12    12    13   ar
    13    13    14   ar
    14    14    15   ar
    15    15    16    1
    16    16    17    1
    17    16    18    1
    18    16    19    1
    19    15    20   ar
    20    20    11   ar
    21    10    21    1
    22    21    22    1
    23    21    23    2
    24    23    24    1
    25    24     8    1
    26    24    25    2
    27     4    26   ar
    28    26    27   ar
    29    27    28   ar
    30    28    29   ar
    31    29    30   ar
    32    30    31   ar
    33    31    26   ar
    34    31    32   ar
    35    32     2   ar
    36    32    33    1
    37     1    34    1
    38     1    35    1
    39     1    36    1
    40     3    37    1
    41     5    38    1
    42    12    39    1
    43    13    40    1
    44    14    41    1
    45    20    42    1
    46    22    43    1
    47    22    44    1
    48    22    45    1
    49    23    46    1
    50    27    47    1
    51    28    48    1
    52    29    49    1
    53    33    50    1
    54    33    51    1
    55    33    52    1
