@<TRIPOS>MOLECULE

  77   80
SMALL
USER_CHARGES
@<TRIPOS>ATOM
   1 C1           4.5275    -1.1147     8.2833 C.3          1    LIG   0.0000
   2 C2           5.1858    -1.1750     6.9145 C.3          1    LIG   0.0000
   3 C3           4.6113    -0.0826     6.0274 C.3          1    LIG   0.0000
   4 C4           4.8774     1.2745     6.6582 C.3          1    LIG   0.0000
   5 C5           3.1125    -0.2869     5.8782 C.3          1    LIG   0.0000
   6 C6           5.2697    -0.1429     4.6585 C.3          1    LIG   0.0000
   7 C7           4.7053     0.9439     3.7599 C.3          1    LIG   0.0000
   8 C8           5.4489     0.8375     2.4391 C.3          1    LIG   0.0000
   9 C9           5.0957    -0.4742     1.7531 C.3          1    LIG   0.0000
  10 C10          5.7025    -1.5304     2.6625 C.3          1    LIG   0.0000
  11 C11          5.0537    -1.5136     4.0373 C.3          1    LIG   0.0000
  12 C12          5.1704    -0.6006     0.2574 C.3          1    LIG   0.0000
  13 C13          3.8471    -0.7444     0.9576 C.3          1    LIG   0.0000
  14 C14          2.9686     0.4650     0.6752 C.2          1    LIG   0.0000
  15 O15          3.4576     1.5586     0.6054 O.2          1    LIG   0.0000
  16 N16          1.5876     0.3019     0.4966 N.am         1    LIG   0.0000
  17 C17          1.0366    -1.0598     0.5946 C.3          1    LIG   0.0000
  18 C18         -0.2905    -1.1181    -0.1471 C.ar         1    LIG   0.0000
  19 C19         -0.6625    -2.2807    -0.8129 C.ar         1    LIG   0.0000
  20 C20         -1.8838    -2.3148    -1.4782 C.ar         1    LIG   0.0000
  21 C21         -2.7359    -1.2153    -1.4779 C.ar         1    LIG   0.0000
  22 C22         -2.3690    -0.0504    -0.8126 C.ar         1    LIG   0.0000
  23 C23         -1.1370    -0.0137    -0.1682 C.ar         1    LIG   0.0000
  24 C24         -0.6906     1.2667     0.5242 C.3          1    LIG   0.0000
  25 C25          0.7805     1.5031     0.2256 C.3          1    LIG   0.0000
  26 C26          0.9361     2.0023    -1.2032 C.2          1    LIG   0.0000
  27 O27          1.6588     1.4228    -1.9659 O.2          1    LIG   0.0000
  28 N28          0.2510     3.1135    -1.6189 N.am         1    LIG   0.0000
  29 C29          0.4013     3.5959    -2.9994 C.3          1    LIG   0.0000
  30 C30         -0.4674     2.7605    -3.9255 C.3          1    LIG   0.0000
  31 N31         -0.3171     3.2428    -5.3059 N.4          1    LIG   1.0000
  32 C32         -0.7335     4.6506    -5.3811 C.3          1    LIG   0.0000
  33 C33          1.0898     3.1254    -5.7155 C.3          1    LIG   0.0000
  34 H            6.2521     0.0089     4.7678 H            1    LIG   0.0000
  35 H            3.4237    -1.6487     1.0126 H            1    LIG   0.0000
  36 H            1.1009     2.2273     0.8361 H            1    LIG   0.0000
  37 H           -0.8886     2.6932    -5.9152 H            1    LIG   0.0000
  38 H            4.9054    -1.8334     8.8669 H            1    LIG   0.0000
  39 H            4.7025    -0.2219     8.6983 H            1    LIG   0.0000
  40 H            3.5414    -1.2491     8.1851 H            1    LIG   0.0000
  41 H            6.1718    -1.0406     7.0127 H            1    LIG   0.0000
  42 H            5.0108    -2.0678     6.4995 H            1    LIG   0.0000
  43 H            4.4443     1.3142     7.5587 H            1    LIG   0.0000
  44 H            5.8634     1.4090     6.7564 H            1    LIG   0.0000
  45 H            4.4994     1.9932     6.0746 H            1    LIG   0.0000
  46 H            2.6794    -0.2472     6.7787 H            1    LIG   0.0000
  47 H            2.7346     0.4318     5.2946 H            1    LIG   0.0000
  48 H            2.9375    -1.1797     5.4632 H            1    LIG   0.0000
  49 H            4.8551     1.8437     4.1696 H            1    LIG   0.0000
  50 H            3.7258     0.8011     3.6179 H            1    LIG   0.0000
  51 H            5.1882     1.6015     1.8489 H            1    LIG   0.0000
  52 H            6.4338     0.8686     2.6092 H            1    LIG   0.0000
  53 H            6.6813    -1.3513     2.7619 H            1    LIG   0.0000
  54 H            5.5686    -2.4314     2.2500 H            1    LIG   0.0000
  55 H            4.0738    -1.6932     3.9497 H            1    LIG   0.0000
  56 H            5.4707    -2.2150     4.6153 H            1    LIG   0.0000
  57 H            5.6068    -1.4000    -0.1555 H            1    LIG   0.0000
  58 H            5.3538     0.2064    -0.3039 H            1    LIG   0.0000
  59 H            0.8927    -1.2938     1.5561 H            1    LIG   0.0000
  60 H            1.6770    -1.7099     0.1856 H            1    LIG   0.0000
  61 H           -0.0615    -3.0799    -0.8135 H            1    LIG   0.0000
  62 H           -2.1542    -3.1450    -1.9656 H            1    LIG   0.0000
  63 H           -3.6128    -1.2625    -1.9563 H            1    LIG   0.0000
  64 H           -2.9775     0.7430    -0.7979 H            1    LIG   0.0000
  65 H           -0.8222     1.1774     1.5115 H            1    LIG   0.0000
  66 H           -1.2298     2.0372     0.1844 H            1    LIG   0.0000
  67 H           -0.3513     3.5965    -0.9833 H            1    LIG   0.0000
  68 H            1.3584     3.5160    -3.2780 H            1    LIG   0.0000
  69 H            0.1181     4.5536    -3.0505 H            1    LIG   0.0000
  70 H           -0.1842     1.8028    -3.8743 H            1    LIG   0.0000
  71 H           -1.4245     2.8403    -3.6468 H            1    LIG   0.0000
  72 H           -0.6312     4.9788    -6.3202 H            1    LIG   0.0000
  73 H           -1.6905     4.7305    -5.1024 H            1    LIG   0.0000
  74 H           -0.1619     5.2003    -4.7718 H            1    LIG   0.0000
  75 H            1.1921     3.4536    -6.6546 H            1    LIG   0.0000
  76 H            1.6613     3.6751    -5.1063 H            1    LIG   0.0000
  77 H            1.3730     2.1677    -5.6644 H            1    LIG   0.0000
@<TRIPOS>BOND
   1        1        2 1
   2        2        3 1
   3        3        4 1
   4        3        5 1
   5        3        6 1
   6        6        7 1
   7        7        8 1
   8        8        9 1
   9        9       10 1
  10       10       11 1
  11       11        6 1
  12        9       12 1
  13       12       13 1
  14       13        9 1
  15       13       14 1
  16       14       15 2
  17       14       16 am
  18       16       17 1
  19       17       18 1
  20       18       19 ar
  21       19       20 ar
  22       20       21 ar
  23       21       22 ar
  24       22       23 ar
  25       23       18 ar
  26       23       24 1
  27       24       25 1
  28       25       16 1
  29       25       26 1
  30       26       27 2
  31       26       28 am
  32       28       29 1
  33       29       30 1
  34       30       31 1
  35       31       32 1
  36       31       33 1
  37        6       34 1
  38       13       35 1
  39       25       36 1
  40       31       37 1
  41        1       38 1
  42        1       39 1
  43        1       40 1
  44        2       41 1
  45        2       42 1
  46        4       43 1
  47        4       44 1
  48        4       45 1
  49        5       46 1
  50        5       47 1
  51        5       48 1
  52        7       49 1
  53        7       50 1
  54        8       51 1
  55        8       52 1
  56       10       53 1
  57       10       54 1
  58       11       55 1
  59       11       56 1
  60       12       57 1
  61       12       58 1
  62       17       59 1
  63       17       60 1
  64       19       61 1
  65       20       62 1
  66       21       63 1
  67       22       64 1
  68       24       65 1
  69       24       66 1
  70       28       67 1
  71       29       68 1
  72       29       69 1
  73       30       70 1
  74       30       71 1
  75       32       72 1
  76       32       73 1
  77       32       74 1
  78       33       75 1
  79       33       76 1
  80       33       77 1

@<TRIPOS>MOLECULE

  77   80
SMALL
USER_CHARGES
@<TRIPOS>ATOM
   1 C1          10.9444    -0.5451     4.7954 C.3          1    LIG   0.0000
   2 C2           9.4554    -0.7784     4.5983 C.3          1    LIG   0.0000
   3 C3           8.8861     0.3102     3.7031 C.3          1    LIG   0.0000
   4 C4           9.5872     0.2756     2.3549 C.3          1    LIG   0.0000
   5 C5           9.1048     1.6667     4.3532 C.3          1    LIG   0.0000
   6 C6           7.3957     0.0768     3.5058 C.3          1    LIG   0.0000
   7 C7           6.8228     1.1643     2.6104 C.3          1    LIG   0.0000
   8 C8           5.3338     0.8917     2.4473 C.3          1    LIG   0.0000
   9 C9           5.0872    -0.4376     1.7554 C.3          1    LIG   0.0000
  10 C10          5.6711    -1.4881     2.6857 C.3          1    LIG   0.0000
  11 C11          7.1659    -1.2899     2.8793 C.3          1    LIG   0.0000
  12 C12          5.1605    -0.5446     0.2585 C.3          1    LIG   0.0000
  13 C13          3.8465    -0.7435     0.9574 C.3          1    LIG   0.0000
  14 C14          2.9686     0.4650     0.6752 C.2          1    LIG   0.0000
  15 O15          3.4576     1.5586     0.6054 O.2          1    LIG   0.0000
  16 N16          1.5876     0.3019     0.4966 N.am         1    LIG   0.0000
  17 C17          1.0366    -1.0598     0.5946 C.3          1    LIG   0.0000
  18 C18         -0.2905    -1.1181    -0.1471 C.ar         1    LIG   0.0000
  19 C19         -0.6625    -2.2807    -0.8129 C.ar         1    LIG   0.0000
  20 C20         -1.8838    -2.3148    -1.4782 C.ar         1    LIG   0.0000
  21 C21         -2.7359    -1.2153    -1.4779 C.ar         1    LIG   0.0000
  22 C22         -2.3690    -0.0504    -0.8126 C.ar         1    LIG   0.0000
  23 C23         -1.1370    -0.0137    -0.1682 C.ar         1    LIG   0.0000
  24 C24         -0.6906     1.2667     0.5242 C.3          1    LIG   0.0000
  25 C25          0.7805     1.5031     0.2256 C.3          1    LIG   0.0000
  26 C26          0.9361     2.0023    -1.2032 C.2          1    LIG   0.0000
  27 O27          1.6588     1.4228    -1.9659 O.2          1    LIG   0.0000
  28 N28          0.2510     3.1135    -1.6189 N.am         1    LIG   0.0000
  29 C29          0.4013     3.5959    -2.9994 C.3          1    LIG   0.0000
  30 C30         -0.4674     2.7605    -3.9255 C.3          1    LIG   0.0000
  31 N31         -0.3171     3.2428    -5.3059 N.4          1    LIG   1.0000
  32 C32         -0.7335     4.6506    -5.3811 C.3          1    LIG   0.0000
  33 C33          1.0898     3.1254    -5.7155 C.3          1    LIG   0.0000
  34 H            6.9388     0.1103     4.3947 H            1    LIG   0.0000
  35 H            3.4389    -1.6556     1.0010 H            1    LIG   0.0000
  36 H            1.1009     2.2273     0.8361 H            1    LIG   0.0000
  37 H           -0.8886     2.6932    -5.9152 H            1    LIG   0.0000
  38 H           11.3189    -1.2613     5.3843 H            1    LIG   0.0000
  39 H           11.4056    -0.5679     3.9084 H            1    LIG   0.0000
  40 H           11.0883     0.3473     5.2231 H            1    LIG   0.0000
  41 H            9.3115    -1.6707     4.1706 H            1    LIG   0.0000
  42 H            8.9941    -0.7556     5.4853 H            1    LIG   0.0000
  43 H           10.5668     0.4290     2.4845 H            1    LIG   0.0000
  44 H            9.4434    -0.6168     1.9272 H            1    LIG   0.0000
  45 H            9.2127     0.9918     1.7659 H            1    LIG   0.0000
  46 H           10.0844     1.8201     4.4828 H            1    LIG   0.0000
  47 H            8.7303     2.3828     3.7642 H            1    LIG   0.0000
  48 H            8.6436     1.6894     5.2402 H            1    LIG   0.0000
  49 H            7.2729     1.1429     1.7177 H            1    LIG   0.0000
  50 H            6.9609     2.0606     3.0319 H            1    LIG   0.0000
  51 H            4.9055     0.8728     3.3507 H            1    LIG   0.0000
  52 H            4.9269     1.6236     1.9007 H            1    LIG   0.0000
  53 H            5.5113    -2.3942     2.2942 H            1    LIG   0.0000
  54 H            5.2169    -1.4240     3.5743 H            1    LIG   0.0000
  55 H            7.5250    -2.0020     3.4825 H            1    LIG   0.0000
  56 H            7.6296    -1.3374     1.9945 H            1    LIG   0.0000
  57 H            5.6242    -1.3232    -0.1645 H            1    LIG   0.0000
  58 H            5.3134     0.2748    -0.2939 H            1    LIG   0.0000
  59 H            0.8927    -1.2938     1.5561 H            1    LIG   0.0000
  60 H            1.6770    -1.7099     0.1856 H            1    LIG   0.0000
  61 H           -0.0615    -3.0799    -0.8135 H            1    LIG   0.0000
  62 H           -2.1542    -3.1450    -1.9656 H            1    LIG   0.0000
  63 H           -3.6128    -1.2625    -1.9563 H            1    LIG   0.0000
  64 H           -2.9775     0.7430    -0.7979 H            1    LIG   0.0000
  65 H           -0.8222     1.1774     1.5115 H            1    LIG   0.0000
  66 H           -1.2298     2.0372     0.1844 H            1    LIG   0.0000
  67 H           -0.3513     3.5965    -0.9833 H            1    LIG   0.0000
  68 H            1.3584     3.5160    -3.2780 H            1    LIG   0.0000
  69 H            0.1181     4.5536    -3.0505 H            1    LIG   0.0000
  70 H           -0.1842     1.8028    -3.8743 H            1    LIG   0.0000
  71 H           -1.4245     2.8403    -3.6468 H            1    LIG   0.0000
  72 H           -0.6312     4.9788    -6.3202 H            1    LIG   0.0000
  73 H           -1.6905     4.7305    -5.1024 H            1    LIG   0.0000
  74 H           -0.1619     5.2003    -4.7718 H            1    LIG   0.0000
  75 H            1.1921     3.4536    -6.6546 H            1    LIG   0.0000
  76 H            1.6613     3.6751    -5.1063 H            1    LIG   0.0000
  77 H            1.3730     2.1677    -5.6644 H            1    LIG   0.0000
@<TRIPOS>BOND
   1        1        2 1
   2        2        3 1
   3        3        4 1
   4        3        5 1
   5        3        6 1
   6        6        7 1
   7        7        8 1
   8        8        9 1
   9        9       10 1
  10       10       11 1
  11       11        6 1
  12        9       12 1
  13       12       13 1
  14       13        9 1
  15       13       14 1
  16       14       15 2
  17       14       16 am
  18       16       17 1
  19       17       18 1
  20       18       19 ar
  21       19       20 ar
  22       20       21 ar
  23       21       22 ar
  24       22       23 ar
  25       23       18 ar
  26       23       24 1
  27       24       25 1
  28       25       16 1
  29       25       26 1
  30       26       27 2
  31       26       28 am
  32       28       29 1
  33       29       30 1
  34       30       31 1
  35       31       32 1
  36       31       33 1
  37        6       34 1
  38       13       35 1
  39       25       36 1
  40       31       37 1
  41        1       38 1
  42        1       39 1
  43        1       40 1
  44        2       41 1
  45        2       42 1
  46        4       43 1
  47        4       44 1
  48        4       45 1
  49        5       46 1
  50        5       47 1
  51        5       48 1
  52        7       49 1
  53        7       50 1
  54        8       51 1
  55        8       52 1
  56       10       53 1
  57       10       54 1
  58       11       55 1
  59       11       56 1
  60       12       57 1
  61       12       58 1
  62       17       59 1
  63       17       60 1
  64       19       61 1
  65       20       62 1
  66       21       63 1
  67       22       64 1
  68       24       65 1
  69       24       66 1
  70       28       67 1
  71       29       68 1
  72       29       69 1
  73       30       70 1
  74       30       71 1
  75       32       72 1
  76       32       73 1
  77       32       74 1
  78       33       75 1
  79       33       76 1
  80       33       77 1

@<TRIPOS>MOLECULE

  77   80
SMALL
USER_CHARGES
@<TRIPOS>ATOM
   1 C1           5.9825     2.5849    -6.3412 C.3          1    LIG   0.0000
   2 C2           6.2442     2.7538    -4.8534 C.3          1    LIG   0.0000
   3 C3           5.7316     1.5330    -4.1069 C.3          1    LIG   0.0000
   4 C4           6.4512     0.2923    -4.6102 C.3          1    LIG   0.0000
   5 C5           4.2378     1.3838    -4.3449 C.3          1    LIG   0.0000
   6 C6           5.9933     1.7020    -2.6190 C.3          1    LIG   0.0000
   7 C7           5.4861     0.4886    -1.8590 C.3          1    LIG   0.0000
   8 C8           5.8293     0.7234    -0.3977 C.3          1    LIG   0.0000
   9 C9           5.0243     1.8983     0.1385 C.3          1    LIG   0.0000
  10 C10          5.5812     3.0919    -0.6203 C.3          1    LIG   0.0000
  11 C11          5.3200     2.9677    -2.1129 C.3          1    LIG   0.0000
  12 C12          4.6901     1.9941     1.6007 C.3          1    LIG   0.0000
  13 C13          3.5885     1.8514     0.5867 C.3          1    LIG   0.0000
  14 C14          2.9686     0.4650     0.6752 C.2          1    LIG   0.0000
  15 O15          3.6616    -0.4890     0.8980 O.2          1    LIG   0.0000
  16 N16          1.5876     0.3019     0.4966 N.am         1    LIG   0.0000
  17 C17          1.0366    -1.0598     0.5946 C.3          1    LIG   0.0000
  18 C18         -0.2905    -1.1181    -0.1471 C.ar         1    LIG   0.0000
  19 C19         -0.6625    -2.2807    -0.8129 C.ar         1    LIG   0.0000
  20 C20         -1.8838    -2.3148    -1.4782 C.ar         1    LIG   0.0000
  21 C21         -2.7359    -1.2153    -1.4779 C.ar         1    LIG   0.0000
  22 C22         -2.3690    -0.0504    -0.8126 C.ar         1    LIG   0.0000
  23 C23         -1.1370    -0.0137    -0.1682 C.ar         1    LIG   0.0000
  24 C24         -0.6906     1.2667     0.5242 C.3          1    LIG   0.0000
  25 C25          0.7805     1.5031     0.2256 C.3          1    LIG   0.0000
  26 C26          0.9361     2.0023    -1.2032 C.2          1    LIG   0.0000
  27 O27          1.6588     1.4228    -1.9659 O.2          1    LIG   0.0000
  28 N28          0.2510     3.1135    -1.6189 N.am         1    LIG   0.0000
  29 C29          0.4013     3.5959    -2.9994 C.3          1    LIG   0.0000
  30 C30         -0.4674     2.7605    -3.9255 C.3          1    LIG   0.0000
  31 N31         -0.3171     3.2428    -5.3059 N.4          1    LIG   1.0000
  32 C32         -0.7335     4.6506    -5.3811 C.3          1    LIG   0.0000
  33 C33          1.0898     3.1254    -5.7155 C.3          1    LIG   0.0000
  34 H            6.9794     1.7828    -2.4736 H            1    LIG   0.0000
  35 H            2.9968     2.6358     0.4004 H            1    LIG   0.0000
  36 H            1.1009     2.2273     0.8361 H            1    LIG   0.0000
  37 H           -0.8886     2.6932    -5.9152 H            1    LIG   0.0000
  38 H            6.3197     3.3880    -6.8323 H            1    LIG   0.0000
  39 H            6.4559     1.7686    -6.6723 H            1    LIG   0.0000
  40 H            4.9997     2.4867    -6.4977 H            1    LIG   0.0000
  41 H            7.2269     2.8520    -4.6969 H            1    LIG   0.0000
  42 H            5.7707     3.5701    -4.5223 H            1    LIG   0.0000
  43 H            6.2791     0.1811    -5.5890 H            1    LIG   0.0000
  44 H            7.4340     0.3905    -4.4537 H            1    LIG   0.0000
  45 H            6.1140    -0.5109    -4.1191 H            1    LIG   0.0000
  46 H            4.0656     1.2727    -5.3237 H            1    LIG   0.0000
  47 H            3.9006     0.5807    -3.8538 H            1    LIG   0.0000
  48 H            3.7644     2.2001    -4.0138 H            1    LIG   0.0000
  49 H            5.9360    -0.3404    -2.1911 H            1    LIG   0.0000
  50 H            4.4965     0.3988    -1.9717 H            1    LIG   0.0000
  51 H            5.6111    -0.0972     0.1306 H            1    LIG   0.0000
  52 H            6.8054     0.9239    -0.3140 H            1    LIG   0.0000
  53 H            6.5677     3.1450    -0.4655 H            1    LIG   0.0000
  54 H            5.1452     3.9257    -0.2815 H            1    LIG   0.0000
  55 H            4.3354     2.9152    -2.2794 H            1    LIG   0.0000
  56 H            5.6966     3.7628    -2.5882 H            1    LIG   0.0000
  57 H            4.8137     2.8596     2.0860 H            1    LIG   0.0000
  58 H            4.9067     1.2343     2.2137 H            1    LIG   0.0000
  59 H            0.8927    -1.2938     1.5561 H            1    LIG   0.0000
  60 H            1.6770    -1.7099     0.1856 H            1    LIG   0.0000
  61 H           -0.0615    -3.0799    -0.8135 H            1    LIG   0.0000
  62 H           -2.1542    -3.1450    -1.9656 H            1    LIG   0.0000
  63 H           -3.6128    -1.2625    -1.9563 H            1    LIG   0.0000
  64 H           -2.9775     0.7430    -0.7979 H            1    LIG   0.0000
  65 H           -0.8222     1.1774     1.5115 H            1    LIG   0.0000
  66 H           -1.2298     2.0372     0.1844 H            1    LIG   0.0000
  67 H           -0.3513     3.5965    -0.9833 H            1    LIG   0.0000
  68 H            1.3584     3.5160    -3.2780 H            1    LIG   0.0000
  69 H            0.1181     4.5536    -3.0505 H            1    LIG   0.0000
  70 H           -0.1842     1.8028    -3.8743 H            1    LIG   0.0000
  71 H           -1.4245     2.8403    -3.6468 H            1    LIG   0.0000
  72 H           -0.6312     4.9788    -6.3202 H            1    LIG   0.0000
  73 H           -1.6905     4.7305    -5.1024 H            1    LIG   0.0000
  74 H           -0.1619     5.2003    -4.7718 H            1    LIG   0.0000
  75 H            1.1921     3.4536    -6.6546 H            1    LIG   0.0000
  76 H            1.6613     3.6751    -5.1063 H            1    LIG   0.0000
  77 H            1.3730     2.1677    -5.6644 H            1    LIG   0.0000
@<TRIPOS>BOND
   1        1        2 1
   2        2        3 1
   3        3        4 1
   4        3        5 1
   5        3        6 1
   6        6        7 1
   7        7        8 1
   8        8        9 1
   9        9       10 1
  10       10       11 1
  11       11        6 1
  12        9       12 1
  13       12       13 1
  14       13        9 1
  15       13       14 1
  16       14       15 2
  17       14       16 am
  18       16       17 1
  19       17       18 1
  20       18       19 ar
  21       19       20 ar
  22       20       21 ar
  23       21       22 ar
  24       22       23 ar
  25       23       18 ar
  26       23       24 1
  27       24       25 1
  28       25       16 1
  29       25       26 1
  30       26       27 2
  31       26       28 am
  32       28       29 1
  33       29       30 1
  34       30       31 1
  35       31       32 1
  36       31       33 1
  37        6       34 1
  38       13       35 1
  39       25       36 1
  40       31       37 1
  41        1       38 1
  42        1       39 1
  43        1       40 1
  44        2       41 1
  45        2       42 1
  46        4       43 1
  47        4       44 1
  48        4       45 1
  49        5       46 1
  50        5       47 1
  51        5       48 1
  52        7       49 1
  53        7       50 1
  54        8       51 1
  55        8       52 1
  56       10       53 1
  57       10       54 1
  58       11       55 1
  59       11       56 1
  60       12       57 1
  61       12       58 1
  62       17       59 1
  63       17       60 1
  64       19       61 1
  65       20       62 1
  66       21       63 1
  67       22       64 1
  68       24       65 1
  69       24       66 1
  70       28       67 1
  71       29       68 1
  72       29       69 1
  73       30       70 1
  74       30       71 1
  75       32       72 1
  76       32       73 1
  77       32       74 1
  78       33       75 1
  79       33       76 1
  80       33       77 1

@<TRIPOS>MOLECULE

  77   80
SMALL
USER_CHARGES
@<TRIPOS>ATOM
   1 C1          11.2722     3.3980    -1.3388 C.3          1    LIG   0.0000
   2 C2           9.7689     3.2778    -1.5288 C.3          1    LIG   0.0000
   3 C3           9.2584     2.0617    -0.7733 C.3          1    LIG   0.0000
   4 C4           9.5713     2.2161     0.7061 C.3          1    LIG   0.0000
   5 C5           9.9381     0.8114    -1.3071 C.3          1    LIG   0.0000
   6 C6           7.7537     1.9414    -0.9635 C.3          1    LIG   0.0000
   7 C7           7.2394     0.7254    -0.2087 C.3          1    LIG   0.0000
   8 C8           5.7357     0.6445    -0.4328 C.3          1    LIG   0.0000
   9 C9           5.0253     1.8608     0.1353 C.3          1    LIG   0.0000
  10 C10          5.5672     3.0443    -0.6494 C.3          1    LIG   0.0000
  11 C11          7.0670     3.1998    -0.4555 C.3          1    LIG   0.0000
  12 C12          4.6940     1.9374     1.5987 C.3          1    LIG   0.0000
  13 C13          3.5880     1.8504     0.5868 C.3          1    LIG   0.0000
  14 C14          2.9686     0.4650     0.6752 C.2          1    LIG   0.0000
  15 O15          3.6616    -0.4890     0.8980 O.2          1    LIG   0.0000
  16 N16          1.5876     0.3019     0.4966 N.am         1    LIG   0.0000
  17 C17          1.0366    -1.0598     0.5946 C.3          1    LIG   0.0000
  18 C18         -0.2905    -1.1181    -0.1471 C.ar         1    LIG   0.0000
  19 C19         -0.6625    -2.2807    -0.8129 C.ar         1    LIG   0.0000
  20 C20         -1.8838    -2.3148    -1.4782 C.ar         1    LIG   0.0000
  21 C21         -2.7359    -1.2153    -1.4779 C.ar         1    LIG   0.0000
  22 C22         -2.3690    -0.0504    -0.8126 C.ar         1    LIG   0.0000
  23 C23         -1.1370    -0.0137    -0.1682 C.ar         1    LIG   0.0000
  24 C24         -0.6906     1.2667     0.5242 C.3          1    LIG   0.0000
  25 C25          0.7805     1.5031     0.2256 C.3          1    LIG   0.0000
  26 C26          0.9361     2.0023    -1.2032 C.2          1    LIG   0.0000
  27 O27          1.6588     1.4228    -1.9659 O.2          1    LIG   0.0000
  28 N28          0.2510     3.1135    -1.6189 N.am         1    LIG   0.0000
  29 C29          0.4013     3.5959    -2.9994 C.3          1    LIG   0.0000
  30 C30         -0.4674     2.7605    -3.9255 C.3          1    LIG   0.0000
  31 N31         -0.3171     3.2428    -5.3059 N.4          1    LIG   1.0000
  32 C32         -0.7335     4.6506    -5.3811 C.3          1    LIG   0.0000
  33 C33          1.0898     3.1254    -5.7155 C.3          1    LIG   0.0000
  34 H            7.5547     1.8304    -1.9372 H            1    LIG   0.0000
  35 H            3.0066     2.6457     0.4152 H            1    LIG   0.0000
  36 H            1.1009     2.2273     0.8361 H            1    LIG   0.0000
  37 H           -0.8886     2.6932    -5.9152 H            1    LIG   0.0000
  38 H           11.6081     4.1981    -1.8358 H            1    LIG   0.0000
  39 H           11.4781     3.4996    -0.3655 H            1    LIG   0.0000
  40 H           11.7194     2.5755    -1.6900 H            1    LIG   0.0000
  41 H            9.3217     4.1004    -1.1775 H            1    LIG   0.0000
  42 H            9.5631     3.1763    -2.5021 H            1    LIG   0.0000
  43 H           10.5603     2.2952     0.8311 H            1    LIG   0.0000
  44 H            9.1241     3.0387     1.0574 H            1    LIG   0.0000
  45 H            9.2354     1.4161     1.2032 H            1    LIG   0.0000
  46 H           10.9271     0.8905    -1.1821 H            1    LIG   0.0000
  47 H            9.6022     0.0113    -0.8101 H            1    LIG   0.0000
  48 H            9.7323     0.7098    -2.2804 H            1    LIG   0.0000
  49 H            7.4336     0.8230     0.7673 H            1    LIG   0.0000
  50 H            7.6805    -0.1024    -0.5553 H            1    LIG   0.0000
  51 H            5.5553     0.5915    -1.4150 H            1    LIG   0.0000
  52 H            5.3835    -0.1770     0.0155 H            1    LIG   0.0000
  53 H            5.1109     3.8776    -0.3375 H            1    LIG   0.0000
  54 H            5.3778     2.9042    -1.6212 H            1    LIG   0.0000
  55 H            7.3930     3.9928    -0.9701 H            1    LIG   0.0000
  56 H            7.2701     3.3260     0.5155 H            1    LIG   0.0000
  57 H            4.8454     2.7885     2.1013 H            1    LIG   0.0000
  58 H            4.8869     1.1588     2.1959 H            1    LIG   0.0000
  59 H            0.8927    -1.2938     1.5561 H            1    LIG   0.0000
  60 H            1.6770    -1.7099     0.1856 H            1    LIG   0.0000
  61 H           -0.0615    -3.0799    -0.8135 H            1    LIG   0.0000
  62 H           -2.1542    -3.1450    -1.9656 H            1    LIG   0.0000
  63 H           -3.6128    -1.2625    -1.9563 H            1    LIG   0.0000
  64 H           -2.9775     0.7430    -0.7979 H            1    LIG   0.0000
  65 H           -0.8222     1.1774     1.5115 H            1    LIG   0.0000
  66 H           -1.2298     2.0372     0.1844 H            1    LIG   0.0000
  67 H           -0.3513     3.5965    -0.9833 H            1    LIG   0.0000
  68 H            1.3584     3.5160    -3.2780 H            1    LIG   0.0000
  69 H            0.1181     4.5536    -3.0505 H            1    LIG   0.0000
  70 H           -0.1842     1.8028    -3.8743 H            1    LIG   0.0000
  71 H           -1.4245     2.8403    -3.6468 H            1    LIG   0.0000
  72 H           -0.6312     4.9788    -6.3202 H            1    LIG   0.0000
  73 H           -1.6905     4.7305    -5.1024 H            1    LIG   0.0000
  74 H           -0.1619     5.2003    -4.7718 H            1    LIG   0.0000
  75 H            1.1921     3.4536    -6.6546 H            1    LIG   0.0000
  76 H            1.6613     3.6751    -5.1063 H            1    LIG   0.0000
  77 H            1.3730     2.1677    -5.6644 H            1    LIG   0.0000
@<TRIPOS>BOND
   1        1        2 1
   2        2        3 1
   3        3        4 1
   4        3        5 1
   5        3        6 1
   6        6        7 1
   7        7        8 1
   8        8        9 1
   9        9       10 1
  10       10       11 1
  11       11        6 1
  12        9       12 1
  13       12       13 1
  14       13        9 1
  15       13       14 1
  16       14       15 2
  17       14       16 am
  18       16       17 1
  19       17       18 1
  20       18       19 ar
  21       19       20 ar
  22       20       21 ar
  23       21       22 ar
  24       22       23 ar
  25       23       18 ar
  26       23       24 1
  27       24       25 1
  28       25       16 1
  29       25       26 1
  30       26       27 2
  31       26       28 am
  32       28       29 1
  33       29       30 1
  34       30       31 1
  35       31       32 1
  36       31       33 1
  37        6       34 1
  38       13       35 1
  39       25       36 1
  40       31       37 1
  41        1       38 1
  42        1       39 1
  43        1       40 1
  44        2       41 1
  45        2       42 1
  46        4       43 1
  47        4       44 1
  48        4       45 1
  49        5       46 1
  50        5       47 1
  51        5       48 1
  52        7       49 1
  53        7       50 1
  54        8       51 1
  55        8       52 1
  56       10       53 1
  57       10       54 1
  58       11       55 1
  59       11       56 1
  60       12       57 1
  61       12       58 1
  62       17       59 1
  63       17       60 1
  64       19       61 1
  65       20       62 1
  66       21       63 1
  67       22       64 1
  68       24       65 1
  69       24       66 1
  70       28       67 1
  71       29       68 1
  72       29       69 1
  73       30       70 1
  74       30       71 1
  75       32       72 1
  76       32       73 1
  77       32       74 1
  78       33       75 1
  79       33       76 1
  80       33       77 1

@<TRIPOS>MOLECULE

  77   80
SMALL
USER_CHARGES
@<TRIPOS>ATOM
   1 C1          11.0424     1.7612     2.4331 C.3          1    LIG   0.0000
   2 C2           9.5938     1.5180     2.0420 C.3          1    LIG   0.0000
   3 C3           9.1061     0.2282     2.6814 C.3          1    LIG   0.0000
   4 C4           9.2105     0.3412     4.1936 C.3          1    LIG   0.0000
   5 C5           9.9624    -0.9315     2.1997 C.3          1    LIG   0.0000
   6 C6           7.6585    -0.0148     2.2907 C.3          1    LIG   0.0000
   7 C7           6.7902     1.1389     2.7671 C.3          1    LIG   0.0000
   8 C8           5.3183     0.8827     2.4722 C.3          1    LIG   0.0000
   9 C9           5.0831    -0.4411     1.7522 C.3          1    LIG   0.0000
  10 C10          5.6806    -1.5137     2.6520 C.3          1    LIG   0.0000
  11 C11          7.1621    -1.3008     2.9308 C.3          1    LIG   0.0000
  12 C12          5.1506    -0.5242     0.2557 C.3          1    LIG   0.0000
  13 C13          3.8447    -0.7411     0.9569 C.3          1    LIG   0.0000
  14 C14          2.9686     0.4650     0.6752 C.2          1    LIG   0.0000
  15 O15          3.4576     1.5586     0.6054 O.2          1    LIG   0.0000
  16 N16          1.5876     0.3019     0.4966 N.am         1    LIG   0.0000
  17 C17          1.0366    -1.0598     0.5946 C.3          1    LIG   0.0000
  18 C18         -0.2905    -1.1181    -0.1471 C.ar         1    LIG   0.0000
  19 C19         -0.6625    -2.2807    -0.8129 C.ar         1    LIG   0.0000
  20 C20         -1.8838    -2.3148    -1.4782 C.ar         1    LIG   0.0000
  21 C21         -2.7359    -1.2153    -1.4779 C.ar         1    LIG   0.0000
  22 C22         -2.3690    -0.0504    -0.8126 C.ar         1    LIG   0.0000
  23 C23         -1.1370    -0.0137    -0.1682 C.ar         1    LIG   0.0000
  24 C24         -0.6906     1.2667     0.5242 C.3          1    LIG   0.0000
  25 C25          0.7805     1.5031     0.2256 C.3          1    LIG   0.0000
  26 C26          0.9361     2.0023    -1.2032 C.2          1    LIG   0.0000
  27 O27          1.6588     1.4228    -1.9659 O.2          1    LIG   0.0000
  28 N28          0.2510     3.1135    -1.6189 N.am         1    LIG   0.0000
  29 C29          0.4013     3.5959    -2.9994 C.3          1    LIG   0.0000
  30 C30          1.6905     4.3921    -3.1203 C.3          1    LIG   0.0000
  31 N31          1.8408     4.8745    -4.5007 N.4          1    LIG   1.0000
  32 C32          1.8856     3.7271    -5.4186 C.3          1    LIG   0.0000
  33 C33          0.6997     5.7342    -4.8464 C.3          1    LIG   0.0000
  34 H            7.5916    -0.0919     1.2959 H            1    LIG   0.0000
  35 H            3.4407    -1.6553     0.9881 H            1    LIG   0.0000
  36 H            1.1009     2.2273     0.8361 H            1    LIG   0.0000
  37 H            2.6889     5.3983    -4.5803 H            1    LIG   0.0000
  38 H           11.3632     2.6098     2.0124 H            1    LIG   0.0000
  39 H           11.1111     1.8355     3.4279 H            1    LIG   0.0000
  40 H           11.6058     0.9982     2.1161 H            1    LIG   0.0000
  41 H            9.0304     2.2810     2.3590 H            1    LIG   0.0000
  42 H            9.5250     1.4437     1.0472 H            1    LIG   0.0000
  43 H           10.1636     0.5012     4.4509 H            1    LIG   0.0000
  44 H            8.6471     1.1042     4.5106 H            1    LIG   0.0000
  45 H            8.8897    -0.5074     4.6143 H            1    LIG   0.0000
  46 H           10.9154    -0.7716     2.4569 H            1    LIG   0.0000
  47 H            9.6416    -1.7801     2.6203 H            1    LIG   0.0000
  48 H            9.8937    -1.0059     1.2048 H            1    LIG   0.0000
  49 H            7.0751     1.9756     2.2994 H            1    LIG   0.0000
  50 H            6.9100     1.2510     3.7535 H            1    LIG   0.0000
  51 H            4.8165     0.8698     3.3371 H            1    LIG   0.0000
  52 H            4.9734     1.6249     1.8976 H            1    LIG   0.0000
  53 H            5.5646    -2.4023     2.2084 H            1    LIG   0.0000
  54 H            5.1889    -1.5090     3.5227 H            1    LIG   0.0000
  55 H            7.3047    -1.2501     3.9192 H            1    LIG   0.0000
  56 H            7.6788    -2.0718     2.5585 H            1    LIG   0.0000
  57 H            5.6168    -1.2934    -0.1816 H            1    LIG   0.0000
  58 H            5.2960     0.3045    -0.2848 H            1    LIG   0.0000
  59 H            0.8927    -1.2938     1.5561 H            1    LIG   0.0000
  60 H            1.6770    -1.7099     0.1856 H            1    LIG   0.0000
  61 H           -0.0615    -3.0799    -0.8135 H            1    LIG   0.0000
  62 H           -2.1542    -3.1450    -1.9656 H            1    LIG   0.0000
  63 H           -3.6128    -1.2625    -1.9563 H            1    LIG   0.0000
  64 H           -2.9775     0.7430    -0.7979 H            1    LIG   0.0000
  65 H           -0.8222     1.1774     1.5115 H            1    LIG   0.0000
  66 H           -1.2298     2.0372     0.1844 H            1    LIG   0.0000
  67 H           -0.3513     3.5965    -0.9833 H            1    LIG   0.0000
  68 H           -0.3750     4.1808    -3.2345 H            1    LIG   0.0000
  69 H            0.4318     2.8154    -3.6238 H            1    LIG   0.0000
  70 H            1.6600     5.1726    -2.4959 H            1    LIG   0.0000
  71 H            2.4668     3.8072    -2.8852 H            1    LIG   0.0000
  72 H            1.9878     4.0553    -6.3577 H            1    LIG   0.0000
  73 H            2.6618     3.1422    -5.1835 H            1    LIG   0.0000
  74 H            1.0374     3.2033    -5.3390 H            1    LIG   0.0000
  75 H            0.8019     6.0624    -5.7854 H            1    LIG   0.0000
  76 H           -0.1485     5.2105    -4.7668 H            1    LIG   0.0000
  77 H            0.6692     6.5148    -4.2220 H            1    LIG   0.0000
@<TRIPOS>BOND
   1        1        2 1
   2        2        3 1
   3        3        4 1
   4        3        5 1
   5        3        6 1
   6        6        7 1
   7        7        8 1
   8        8        9 1
   9        9       10 1
  10       10       11 1
  11       11        6 1
  12        9       12 1
  13       12       13 1
  14       13        9 1
  15       13       14 1
  16       14       15 2
  17       14       16 am
  18       16       17 1
  19       17       18 1
  20       18       19 ar
  21       19       20 ar
  22       20       21 ar
  23       21       22 ar
  24       22       23 ar
  25       23       18 ar
  26       23       24 1
  27       24       25 1
  28       25       16 1
  29       25       26 1
  30       26       27 2
  31       26       28 am
  32       28       29 1
  33       29       30 1
  34       30       31 1
  35       31       32 1
  36       31       33 1
  37        6       34 1
  38       13       35 1
  39       25       36 1
  40       31       37 1
  41        1       38 1
  42        1       39 1
  43        1       40 1
  44        2       41 1
  45        2       42 1
  46        4       43 1
  47        4       44 1
  48        4       45 1
  49        5       46 1
  50        5       47 1
  51        5       48 1
  52        7       49 1
  53        7       50 1
  54        8       51 1
  55        8       52 1
  56       10       53 1
  57       10       54 1
  58       11       55 1
  59       11       56 1
  60       12       57 1
  61       12       58 1
  62       17       59 1
  63       17       60 1
  64       19       61 1
  65       20       62 1
  66       21       63 1
  67       22       64 1
  68       24       65 1
  69       24       66 1
  70       28       67 1
  71       29       68 1
  72       29       69 1
  73       30       70 1
  74       30       71 1
  75       32       72 1
  76       32       73 1
  77       32       74 1
  78       33       75 1
  79       33       76 1
  80       33       77 1

@<TRIPOS>MOLECULE

  77   80
SMALL
USER_CHARGES
@<TRIPOS>ATOM
   1 C1           3.9761     1.2149    -5.8327 C.3          1    LIG   0.0000
   2 C2           4.2378     1.3838    -4.3449 C.3          1    LIG   0.0000
   3 C3           5.7316     1.5330    -4.1069 C.3          1    LIG   0.0000
   4 C4           6.2442     2.7538    -4.8534 C.3          1    LIG   0.0000
   5 C5           6.4512     0.2923    -4.6102 C.3          1    LIG   0.0000
   6 C6           5.9933     1.7020    -2.6190 C.3          1    LIG   0.0000
   7 C7           5.4861     0.4886    -1.8590 C.3          1    LIG   0.0000
   8 C8           5.8293     0.7234    -0.3977 C.3          1    LIG   0.0000
   9 C9           5.0243     1.8983     0.1385 C.3          1    LIG   0.0000
  10 C10          5.5812     3.0919    -0.6203 C.3          1    LIG   0.0000
  11 C11          5.3200     2.9677    -2.1129 C.3          1    LIG   0.0000
  12 C12          4.6901     1.9941     1.6007 C.3          1    LIG   0.0000
  13 C13          3.5885     1.8514     0.5867 C.3          1    LIG   0.0000
  14 C14          2.9686     0.4650     0.6752 C.2          1    LIG   0.0000
  15 O15          3.6616    -0.4890     0.8980 O.2          1    LIG   0.0000
  16 N16          1.5876     0.3019     0.4966 N.am         1    LIG   0.0000
  17 C17          1.0366    -1.0598     0.5946 C.3          1    LIG   0.0000
  18 C18         -0.2905    -1.1181    -0.1471 C.ar         1    LIG   0.0000
  19 C19         -0.6625    -2.2807    -0.8129 C.ar         1    LIG   0.0000
  20 C20         -1.8838    -2.3148    -1.4782 C.ar         1    LIG   0.0000
  21 C21         -2.7359    -1.2153    -1.4779 C.ar         1    LIG   0.0000
  22 C22         -2.3690    -0.0504    -0.8126 C.ar         1    LIG   0.0000
  23 C23         -1.1370    -0.0137    -0.1682 C.ar         1    LIG   0.0000
  24 C24         -0.6906     1.2667     0.5242 C.3          1    LIG   0.0000
  25 C25          0.7805     1.5031     0.2256 C.3          1    LIG   0.0000
  26 C26          0.9361     2.0023    -1.2032 C.2          1    LIG   0.0000
  27 O27          1.6588     1.4228    -1.9659 O.2          1    LIG   0.0000
  28 N28          0.2510     3.1135    -1.6189 N.am         1    LIG   0.0000
  29 C29          0.4013     3.5959    -2.9994 C.3          1    LIG   0.0000
  30 C30          1.6905     4.3921    -3.1203 C.3          1    LIG   0.0000
  31 N31          1.8408     4.8745    -4.5007 N.4          1    LIG   1.0000
  32 C32          1.8856     3.7271    -5.4186 C.3          1    LIG   0.0000
  33 C33          0.6997     5.7342    -4.8464 C.3          1    LIG   0.0000
  34 H            6.9794     1.7828    -2.4736 H            1    LIG   0.0000
  35 H            2.9968     2.6358     0.4004 H            1    LIG   0.0000
  36 H            1.1009     2.2273     0.8361 H            1    LIG   0.0000
  37 H            2.6889     5.3983    -4.5803 H            1    LIG   0.0000
  38 H            2.9933     1.1167    -5.9892 H            1    LIG   0.0000
  39 H            4.3133     2.0180    -6.3238 H            1    LIG   0.0000
  40 H            4.4495     0.3986    -6.1638 H            1    LIG   0.0000
  41 H            3.7644     2.2001    -4.0138 H            1    LIG   0.0000
  42 H            3.9006     0.5807    -3.8538 H            1    LIG   0.0000
  43 H            6.0720     2.6427    -5.8322 H            1    LIG   0.0000
  44 H            5.7707     3.5701    -4.5223 H            1    LIG   0.0000
  45 H            7.2269     2.8520    -4.6969 H            1    LIG   0.0000
  46 H            6.2791     0.1811    -5.5890 H            1    LIG   0.0000
  47 H            7.4340     0.3905    -4.4537 H            1    LIG   0.0000
  48 H            6.1140    -0.5109    -4.1191 H            1    LIG   0.0000
  49 H            5.9360    -0.3404    -2.1911 H            1    LIG   0.0000
  50 H            4.4965     0.3988    -1.9717 H            1    LIG   0.0000
  51 H            5.6111    -0.0972     0.1306 H            1    LIG   0.0000
  52 H            6.8054     0.9239    -0.3140 H            1    LIG   0.0000
  53 H            6.5677     3.1450    -0.4655 H            1    LIG   0.0000
  54 H            5.1452     3.9257    -0.2815 H            1    LIG   0.0000
  55 H            4.3354     2.9152    -2.2794 H            1    LIG   0.0000
  56 H            5.6966     3.7628    -2.5882 H            1    LIG   0.0000
  57 H            4.8137     2.8596     2.0860 H            1    LIG   0.0000
  58 H            4.9067     1.2343     2.2137 H            1    LIG   0.0000
  59 H            0.8927    -1.2938     1.5561 H            1    LIG   0.0000
  60 H            1.6770    -1.7099     0.1856 H            1    LIG   0.0000
  61 H           -0.0615    -3.0799    -0.8135 H            1    LIG   0.0000
  62 H           -2.1542    -3.1450    -1.9656 H            1    LIG   0.0000
  63 H           -3.6128    -1.2625    -1.9563 H            1    LIG   0.0000
  64 H           -2.9775     0.7430    -0.7979 H            1    LIG   0.0000
  65 H           -0.8222     1.1774     1.5115 H            1    LIG   0.0000
  66 H           -1.2298     2.0372     0.1844 H            1    LIG   0.0000
  67 H           -0.3513     3.5965    -0.9833 H            1    LIG   0.0000
  68 H           -0.3750     4.1808    -3.2345 H            1    LIG   0.0000
  69 H            0.4318     2.8154    -3.6238 H            1    LIG   0.0000
  70 H            1.6600     5.1726    -2.4959 H            1    LIG   0.0000
  71 H            2.4668     3.8072    -2.8852 H            1    LIG   0.0000
  72 H            1.9878     4.0553    -6.3577 H            1    LIG   0.0000
  73 H            2.6618     3.1422    -5.1835 H            1    LIG   0.0000
  74 H            1.0374     3.2033    -5.3390 H            1    LIG   0.0000
  75 H            0.8019     6.0624    -5.7854 H            1    LIG   0.0000
  76 H           -0.1485     5.2105    -4.7668 H            1    LIG   0.0000
  77 H            0.6692     6.5148    -4.2220 H            1    LIG   0.0000
@<TRIPOS>BOND
   1        1        2 1
   2        2        3 1
   3        3        4 1
   4        3        5 1
   5        3        6 1
   6        6        7 1
   7        7        8 1
   8        8        9 1
   9        9       10 1
  10       10       11 1
  11       11        6 1
  12        9       12 1
  13       12       13 1
  14       13        9 1
  15       13       14 1
  16       14       15 2
  17       14       16 am
  18       16       17 1
  19       17       18 1
  20       18       19 ar
  21       19       20 ar
  22       20       21 ar
  23       21       22 ar
  24       22       23 ar
  25       23       18 ar
  26       23       24 1
  27       24       25 1
  28       25       16 1
  29       25       26 1
  30       26       27 2
  31       26       28 am
  32       28       29 1
  33       29       30 1
  34       30       31 1
  35       31       32 1
  36       31       33 1
  37        6       34 1
  38       13       35 1
  39       25       36 1
  40       31       37 1
  41        1       38 1
  42        1       39 1
  43        1       40 1
  44        2       41 1
  45        2       42 1
  46        4       43 1
  47        4       44 1
  48        4       45 1
  49        5       46 1
  50        5       47 1
  51        5       48 1
  52        7       49 1
  53        7       50 1
  54        8       51 1
  55        8       52 1
  56       10       53 1
  57       10       54 1
  58       11       55 1
  59       11       56 1
  60       12       57 1
  61       12       58 1
  62       17       59 1
  63       17       60 1
  64       19       61 1
  65       20       62 1
  66       21       63 1
  67       22       64 1
  68       24       65 1
  69       24       66 1
  70       28       67 1
  71       29       68 1
  72       29       69 1
  73       30       70 1
  74       30       71 1
  75       32       72 1
  76       32       73 1
  77       32       74 1
  78       33       75 1
  79       33       76 1
  80       33       77 1

@<TRIPOS>MOLECULE

  77   80
SMALL
USER_CHARGES
@<TRIPOS>ATOM
   1 C1          11.2999     1.1066     1.0398 C.3          1    LIG   0.0000
   2 C2           9.7837     0.9996     1.0473 C.3          1    LIG   0.0000
   3 C3           9.1899     2.1617     0.2680 C.3          1    LIG   0.0000
   4 C4           9.6937     2.1205    -1.1655 C.3          1    LIG   0.0000
   5 C5           9.6085     3.4720     0.9147 C.3          1    LIG   0.0000
   6 C6           7.6748     2.0547     0.2754 C.3          1    LIG   0.0000
   7 C7           7.2422     0.7473    -0.3693 C.3          1    LIG   0.0000
   8 C8           5.7252     0.6505    -0.4611 C.3          1    LIG   0.0000
   9 C9           5.0199     1.8632     0.1372 C.3          1    LIG   0.0000
  10 C10          5.5618     3.0704    -0.6151 C.3          1    LIG   0.0000
  11 C11          7.0739     3.2111    -0.5066 C.3          1    LIG   0.0000
  12 C12          4.6886     1.9152     1.5997 C.3          1    LIG   0.0000
  13 C13          3.5868     1.8477     0.5869 C.3          1    LIG   0.0000
  14 C14          2.9686     0.4650     0.6752 C.2          1    LIG   0.0000
  15 O15          3.6616    -0.4890     0.8980 O.2          1    LIG   0.0000
  16 N16          1.5876     0.3019     0.4966 N.am         1    LIG   0.0000
  17 C17          1.0366    -1.0598     0.5946 C.3          1    LIG   0.0000
  18 C18         -0.2905    -1.1181    -0.1471 C.ar         1    LIG   0.0000
  19 C19         -0.6625    -2.2807    -0.8129 C.ar         1    LIG   0.0000
  20 C20         -1.8838    -2.3148    -1.4782 C.ar         1    LIG   0.0000
  21 C21         -2.7359    -1.2153    -1.4779 C.ar         1    LIG   0.0000
  22 C22         -2.3690    -0.0504    -0.8126 C.ar         1    LIG   0.0000
  23 C23         -1.1370    -0.0137    -0.1682 C.ar         1    LIG   0.0000
  24 C24         -0.6906     1.2667     0.5242 C.3          1    LIG   0.0000
  25 C25          0.7805     1.5031     0.2256 C.3          1    LIG   0.0000
  26 C26          0.9361     2.0023    -1.2032 C.2          1    LIG   0.0000
  27 O27          1.6588     1.4228    -1.9659 O.2          1    LIG   0.0000
  28 N28          0.2510     3.1135    -1.6189 N.am         1    LIG   0.0000
  29 C29          0.4013     3.5959    -2.9994 C.3          1    LIG   0.0000
  30 C30          1.6905     4.3921    -3.1203 C.3          1    LIG   0.0000
  31 N31          1.8408     4.8745    -4.5007 N.4          1    LIG   1.0000
  32 C32          1.8856     3.7271    -5.4186 C.3          1    LIG   0.0000
  33 C33          0.6997     5.7342    -4.8464 C.3          1    LIG   0.0000
  34 H            7.3445     2.0848     1.2188 H            1    LIG   0.0000
  35 H            3.0051     2.6454     0.4282 H            1    LIG   0.0000
  36 H            1.1009     2.2273     0.8361 H            1    LIG   0.0000
  37 H            2.6889     5.3983    -4.5803 H            1    LIG   0.0000
  38 H           11.6906     0.3420     1.5525 H            1    LIG   0.0000
  39 H           11.6314     1.0795     0.0967 H            1    LIG   0.0000
  40 H           11.5753     1.9686     1.4653 H            1    LIG   0.0000
  41 H            9.5083     0.1375     0.6218 H            1    LIG   0.0000
  42 H            9.4523     1.0266     1.9904 H            1    LIG   0.0000
  43 H           10.6912     2.1909    -1.1704 H            1    LIG   0.0000
  44 H            9.4183     1.2584    -1.5910 H            1    LIG   0.0000
  45 H            9.3030     2.8850    -1.6782 H            1    LIG   0.0000
  46 H           10.6060     3.5424     0.9098 H            1    LIG   0.0000
  47 H            9.2179     4.2365     0.4020 H            1    LIG   0.0000
  48 H            9.2771     3.4991     1.8578 H            1    LIG   0.0000
  49 H            7.5845    -0.0153     0.1795 H            1    LIG   0.0000
  50 H            7.6282     0.6950    -1.2903 H            1    LIG   0.0000
  51 H            5.4674     0.5736    -1.4242 H            1    LIG   0.0000
  52 H            5.4267    -0.1677     0.0302 H            1    LIG   0.0000
  53 H            5.1376     3.8952    -0.2414 H            1    LIG   0.0000
  54 H            5.3190     2.9790    -1.5809 H            1    LIG   0.0000
  55 H            7.4677     3.2238    -1.4257 H            1    LIG   0.0000
  56 H            7.2896     4.0686    -0.0396 H            1    LIG   0.0000
  57 H            4.8410     2.7574     2.1169 H            1    LIG   0.0000
  58 H            4.8796     1.1262     2.1836 H            1    LIG   0.0000
  59 H            0.8927    -1.2938     1.5561 H            1    LIG   0.0000
  60 H            1.6770    -1.7099     0.1856 H            1    LIG   0.0000
  61 H           -0.0615    -3.0799    -0.8135 H            1    LIG   0.0000
  62 H           -2.1542    -3.1450    -1.9656 H            1    LIG   0.0000
  63 H           -3.6128    -1.2625    -1.9563 H            1    LIG   0.0000
  64 H           -2.9775     0.7430    -0.7979 H            1    LIG   0.0000
  65 H           -0.8222     1.1774     1.5115 H            1    LIG   0.0000
  66 H           -1.2298     2.0372     0.1844 H            1    LIG   0.0000
  67 H           -0.3513     3.5965    -0.9833 H            1    LIG   0.0000
  68 H           -0.3750     4.1808    -3.2345 H            1    LIG   0.0000
  69 H            0.4318     2.8154    -3.6238 H            1    LIG   0.0000
  70 H            1.6600     5.1726    -2.4959 H            1    LIG   0.0000
  71 H            2.4668     3.8072    -2.8852 H            1    LIG   0.0000
  72 H            1.9878     4.0553    -6.3577 H            1    LIG   0.0000
  73 H            2.6618     3.1422    -5.1835 H            1    LIG   0.0000
  74 H            1.0374     3.2033    -5.3390 H            1    LIG   0.0000
  75 H            0.8019     6.0624    -5.7854 H            1    LIG   0.0000
  76 H           -0.1485     5.2105    -4.7668 H            1    LIG   0.0000
  77 H            0.6692     6.5148    -4.2220 H            1    LIG   0.0000
@<TRIPOS>BOND
   1        1        2 1
   2        2        3 1
   3        3        4 1
   4        3        5 1
   5        3        6 1
   6        6        7 1
   7        7        8 1
   8        8        9 1
   9        9       10 1
  10       10       11 1
  11       11        6 1
  12        9       12 1
  13       12       13 1
  14       13        9 1
  15       13       14 1
  16       14       15 2
  17       14       16 am
  18       16       17 1
  19       17       18 1
  20       18       19 ar
  21       19       20 ar
  22       20       21 ar
  23       21       22 ar
  24       22       23 ar
  25       23       18 ar
  26       23       24 1
  27       24       25 1
  28       25       16 1
  29       25       26 1
  30       26       27 2
  31       26       28 am
  32       28       29 1
  33       29       30 1
  34       30       31 1
  35       31       32 1
  36       31       33 1
  37        6       34 1
  38       13       35 1
  39       25       36 1
  40       31       37 1
  41        1       38 1
  42        1       39 1
  43        1       40 1
  44        2       41 1
  45        2       42 1
  46        4       43 1
  47        4       44 1
  48        4       45 1
  49        5       46 1
  50        5       47 1
  51        5       48 1
  52        7       49 1
  53        7       50 1
  54        8       51 1
  55        8       52 1
  56       10       53 1
  57       10       54 1
  58       11       55 1
  59       11       56 1
  60       12       57 1
  61       12       58 1
  62       17       59 1
  63       17       60 1
  64       19       61 1
  65       20       62 1
  66       21       63 1
  67       22       64 1
  68       24       65 1
  69       24       66 1
  70       28       67 1
  71       29       68 1
  72       29       69 1
  73       30       70 1
  74       30       71 1
  75       32       72 1
  76       32       73 1
  77       32       74 1
  78       33       75 1
  79       33       76 1
  80       33       77 1

@<TRIPOS>MOLECULE

  77   80
SMALL
USER_CHARGES
@<TRIPOS>ATOM
   1 C1          11.2722     3.3980    -1.3388 C.3          1    LIG   0.0000
   2 C2           9.7689     3.2778    -1.5288 C.3          1    LIG   0.0000
   3 C3           9.2584     2.0617    -0.7733 C.3          1    LIG   0.0000
   4 C4           9.5713     2.2161     0.7061 C.3          1    LIG   0.0000
   5 C5           9.9381     0.8114    -1.3071 C.3          1    LIG   0.0000
   6 C6           7.7537     1.9414    -0.9635 C.3          1    LIG   0.0000
   7 C7           7.2394     0.7254    -0.2087 C.3          1    LIG   0.0000
   8 C8           5.7357     0.6445    -0.4328 C.3          1    LIG   0.0000
   9 C9           5.0253     1.8608     0.1353 C.3          1    LIG   0.0000
  10 C10          5.5672     3.0443    -0.6494 C.3          1    LIG   0.0000
  11 C11          7.0670     3.1998    -0.4555 C.3          1    LIG   0.0000
  12 C12          4.6940     1.9374     1.5987 C.3          1    LIG   0.0000
  13 C13          3.5880     1.8504     0.5868 C.3          1    LIG   0.0000
  14 C14          2.9686     0.4650     0.6752 C.2          1    LIG   0.0000
  15 O15          3.6616    -0.4890     0.8980 O.2          1    LIG   0.0000
  16 N16          1.5876     0.3019     0.4966 N.am         1    LIG   0.0000
  17 C17          1.0366    -1.0598     0.5946 C.3          1    LIG   0.0000
  18 C18         -0.2905    -1.1181    -0.1471 C.ar         1    LIG   0.0000
  19 C19         -0.6625    -2.2807    -0.8129 C.ar         1    LIG   0.0000
  20 C20         -1.8838    -2.3148    -1.4782 C.ar         1    LIG   0.0000
  21 C21         -2.7359    -1.2153    -1.4779 C.ar         1    LIG   0.0000
  22 C22         -2.3690    -0.0504    -0.8126 C.ar         1    LIG   0.0000
  23 C23         -1.1370    -0.0137    -0.1682 C.ar         1    LIG   0.0000
  24 C24         -0.6906     1.2667     0.5242 C.3          1    LIG   0.0000
  25 C25          0.7805     1.5031     0.2256 C.3          1    LIG   0.0000
  26 C26          0.9361     2.0023    -1.2032 C.2          1    LIG   0.0000
  27 O27          0.3360     2.9756    -1.5674 O.2          1    LIG   0.0000
  28 N28          1.7612     1.3407    -2.0740 N.am         1    LIG   0.0000
  29 C29          1.9116     1.8231    -3.4544 C.3          1    LIG   0.0000
  30 C30          2.8840     2.9911    -3.4799 C.3          1    LIG   0.0000
  31 N31          3.0343     3.4735    -4.8603 N.4          1    LIG   1.0000
  32 C32          3.5509     2.3873    -5.7055 C.3          1    LIG   0.0000
  33 C33          1.7276     3.9125    -5.3710 C.3          1    LIG   0.0000
  34 H            7.5547     1.8304    -1.9372 H            1    LIG   0.0000
  35 H            3.0066     2.6457     0.4152 H            1    LIG   0.0000
  36 H            1.1009     2.2273     0.8361 H            1    LIG   0.0000
  37 H            3.6740     4.2419    -4.8771 H            1    LIG   0.0000
  38 H           11.6081     4.1981    -1.8358 H            1    LIG   0.0000
  39 H           11.4781     3.4996    -0.3655 H            1    LIG   0.0000
  40 H           11.7194     2.5755    -1.6900 H            1    LIG   0.0000
  41 H            9.3217     4.1004    -1.1775 H            1    LIG   0.0000
  42 H            9.5631     3.1763    -2.5021 H            1    LIG   0.0000
  43 H           10.5603     2.2952     0.8311 H            1    LIG   0.0000
  44 H            9.1241     3.0387     1.0574 H            1    LIG   0.0000
  45 H            9.2354     1.4161     1.2032 H            1    LIG   0.0000
  46 H           10.9271     0.8905    -1.1821 H            1    LIG   0.0000
  47 H            9.6022     0.0113    -0.8101 H            1    LIG   0.0000
  48 H            9.7323     0.7098    -2.2804 H            1    LIG   0.0000
  49 H            7.4336     0.8230     0.7673 H            1    LIG   0.0000
  50 H            7.6805    -0.1024    -0.5553 H            1    LIG   0.0000
  51 H            5.5553     0.5915    -1.4150 H            1    LIG   0.0000
  52 H            5.3835    -0.1770     0.0155 H            1    LIG   0.0000
  53 H            5.1109     3.8776    -0.3375 H            1    LIG   0.0000
  54 H            5.3778     2.9042    -1.6212 H            1    LIG   0.0000
  55 H            7.3930     3.9928    -0.9701 H            1    LIG   0.0000
  56 H            7.2701     3.3260     0.5155 H            1    LIG   0.0000
  57 H            4.8454     2.7885     2.1013 H            1    LIG   0.0000
  58 H            4.8869     1.1588     2.1959 H            1    LIG   0.0000
  59 H            0.8927    -1.2938     1.5561 H            1    LIG   0.0000
  60 H            1.6770    -1.7099     0.1856 H            1    LIG   0.0000
  61 H           -0.0615    -3.0799    -0.8135 H            1    LIG   0.0000
  62 H           -2.1542    -3.1450    -1.9656 H            1    LIG   0.0000
  63 H           -3.6128    -1.2625    -1.9563 H            1    LIG   0.0000
  64 H           -2.9775     0.7430    -0.7979 H            1    LIG   0.0000
  65 H           -0.8222     1.1774     1.5115 H            1    LIG   0.0000
  66 H           -1.2298     2.0372     0.1844 H            1    LIG   0.0000
  67 H            2.2613     0.5296    -1.7705 H            1    LIG   0.0000
  68 H            1.0227     2.1218    -3.8018 H            1    LIG   0.0000
  69 H            2.2630     1.0842    -4.0293 H            1    LIG   0.0000
  70 H            2.5325     3.7300    -2.9050 H            1    LIG   0.0000
  71 H            3.7728     2.6925    -3.1325 H            1    LIG   0.0000
  72 H            3.6531     2.7155    -6.6445 H            1    LIG   0.0000
  73 H            4.4398     2.0887    -5.3581 H            1    LIG   0.0000
  74 H            2.9111     1.6189    -5.6887 H            1    LIG   0.0000
  75 H            1.8299     4.2407    -6.3101 H            1    LIG   0.0000
  76 H            1.0879     3.1441    -5.3542 H            1    LIG   0.0000
  77 H            1.3762     4.6514    -4.7961 H            1    LIG   0.0000
@<TRIPOS>BOND
   1        1        2 1
   2        2        3 1
   3        3        4 1
   4        3        5 1
   5        3        6 1
   6        6        7 1
   7        7        8 1
   8        8        9 1
   9        9       10 1
  10       10       11 1
  11       11        6 1
  12        9       12 1
  13       12       13 1
  14       13        9 1
  15       13       14 1
  16       14       15 2
  17       14       16 am
  18       16       17 1
  19       17       18 1
  20       18       19 ar
  21       19       20 ar
  22       20       21 ar
  23       21       22 ar
  24       22       23 ar
  25       23       18 ar
  26       23       24 1
  27       24       25 1
  28       25       16 1
  29       25       26 1
  30       26       27 2
  31       26       28 am
  32       28       29 1
  33       29       30 1
  34       30       31 1
  35       31       32 1
  36       31       33 1
  37        6       34 1
  38       13       35 1
  39       25       36 1
  40       31       37 1
  41        1       38 1
  42        1       39 1
  43        1       40 1
  44        2       41 1
  45        2       42 1
  46        4       43 1
  47        4       44 1
  48        4       45 1
  49        5       46 1
  50        5       47 1
  51        5       48 1
  52        7       49 1
  53        7       50 1
  54        8       51 1
  55        8       52 1
  56       10       53 1
  57       10       54 1
  58       11       55 1
  59       11       56 1
  60       12       57 1
  61       12       58 1
  62       17       59 1
  63       17       60 1
  64       19       61 1
  65       20       62 1
  66       21       63 1
  67       22       64 1
  68       24       65 1
  69       24       66 1
  70       28       67 1
  71       29       68 1
  72       29       69 1
  73       30       70 1
  74       30       71 1
  75       32       72 1
  76       32       73 1
  77       32       74 1
  78       33       75 1
  79       33       76 1
  80       33       77 1

@<TRIPOS>MOLECULE

  77   80
SMALL
USER_CHARGES
@<TRIPOS>ATOM
   1 C1           4.7279    -7.4085    -3.2373 C.3          1    LIG   0.0000
   2 C2           4.7027    -6.8905    -1.8085 C.3          1    LIG   0.0000
   3 C3           3.3693    -6.2127    -1.5387 C.3          1    LIG   0.0000
   4 C4           2.2429    -7.2144    -1.7344 C.3          1    LIG   0.0000
   5 C5           3.1873    -5.0510    -2.5020 C.3          1    LIG   0.0000
   6 C6           3.3441    -5.6947    -0.1097 C.3          1    LIG   0.0000
   7 C7           2.0165    -5.0140     0.1751 C.3          1    LIG   0.0000
   8 C8           2.0637    -4.5726     1.6282 C.3          1    LIG   0.0000
   9 C9           3.1167    -3.4879     1.8034 C.3          1    LIG   0.0000
  10 C10          4.4268    -4.2131     1.5423 C.3          1    LIG   0.0000
  11 C11          4.4969    -4.7290     0.1139 C.3          1    LIG   0.0000
  12 C12          2.9959    -2.4742     2.9064 C.3          1    LIG   0.0000
  13 C13          2.9444    -2.0305     1.4702 C.3          1    LIG   0.0000
  14 C14          1.5326    -1.5986     1.1035 C.2          1    LIG   0.0000
  15 O15          0.5891    -2.1921     1.5481 O.2          1    LIG   0.0000
  16 N16          1.3336    -0.5065     0.2456 N.am         1    LIG   0.0000
  17 C17         -0.0200    -0.0598    -0.1395 C.3          1    LIG   0.0000
  18 C18         -0.0959     1.4602    -0.0672 C.ar         1    LIG   0.0000
  19 C19         -1.3448     2.0541    -0.2065 C.ar         1    LIG   0.0000
  20 C20         -1.4623     3.4362    -0.0994 C.ar         1    LIG   0.0000
  21 C21         -0.3355     4.2156     0.1418 C.ar         1    LIG   0.0000
  22 C22          0.9177     3.6273     0.2776 C.ar         1    LIG   0.0000
  23 C23          1.0274     2.2493     0.1698 C.ar         1    LIG   0.0000
  24 C24          2.4002     1.6195     0.3257 C.3          1    LIG   0.0000
  25 C25          2.4640     0.2466    -0.3200 C.3          1    LIG   0.0000
  26 C26          2.4049     0.3649    -1.8338 C.2          1    LIG   0.0000
  27 O27          1.4961    -0.1323    -2.4395 O.2          1    LIG   0.0000
  28 N28          3.3892     1.0393    -2.5071 N.am         1    LIG   0.0000
  29 C29          3.3321     1.1537    -3.9715 C.3          1    LIG   0.0000
  30 C30          2.3636     2.2604    -4.3559 C.3          1    LIG   0.0000
  31 N31          2.3065     2.3748    -5.8203 N.4          1    LIG   1.0000
  32 C32          3.6446     2.6924    -6.3395 C.3          1    LIG   0.0000
  33 C33          1.8479     1.1014    -6.3938 C.3          1    LIG   0.0000
  34 H            3.4483    -6.4691     0.5144 H            1    LIG   0.0000
  35 H            3.7196    -1.5252     1.0911 H            1    LIG   0.0000
  36 H            3.3197    -0.1998    -0.0585 H            1    LIG   0.0000
  37 H            1.6694     3.1029    -6.0732 H            1    LIG   0.0000
  38 H            5.6051    -7.8544    -3.4149 H            1    LIG   0.0000
  39 H            3.9868    -8.0675    -3.3661 H            1    LIG   0.0000
  40 H            4.6082    -6.6442    -3.8711 H            1    LIG   0.0000
  41 H            4.8224    -7.6548    -1.1748 H            1    LIG   0.0000
  42 H            5.4438    -6.2315    -1.6798 H            1    LIG   0.0000
  43 H            2.2595    -7.5551    -2.6744 H            1    LIG   0.0000
  44 H            2.3626    -7.9786    -1.1007 H            1    LIG   0.0000
  45 H            1.3656    -6.7684    -1.5569 H            1    LIG   0.0000
  46 H            3.2039    -5.3918    -3.4420 H            1    LIG   0.0000
  47 H            2.3101    -4.6051    -2.3245 H            1    LIG   0.0000
  48 H            3.9284    -4.3920    -2.3732 H            1    LIG   0.0000
  49 H            1.2619    -5.6545     0.0326 H            1    LIG   0.0000
  50 H            1.8987    -4.2216    -0.4234 H            1    LIG   0.0000
  51 H            1.1694    -4.2134     1.8953 H            1    LIG   0.0000
  52 H            2.2944    -5.3557     2.2057 H            1    LIG   0.0000
  53 H            4.5024    -4.9862     2.1721 H            1    LIG   0.0000
  54 H            5.1858    -3.5809     1.6981 H            1    LIG   0.0000
  55 H            4.4237    -3.9632    -0.5249 H            1    LIG   0.0000
  56 H            5.3658    -5.2023    -0.0312 H            1    LIG   0.0000
  57 H            3.7913    -2.2517     3.4701 H            1    LIG   0.0000
  58 H            2.1696    -2.4437     3.4689 H            1    LIG   0.0000
  59 H           -0.6920    -0.4568     0.4857 H            1    LIG   0.0000
  60 H           -0.2162    -0.3588    -1.0734 H            1    LIG   0.0000
  61 H           -2.1529     1.4920    -0.3824 H            1    LIG   0.0000
  62 H           -2.3581     3.8700    -0.1959 H            1    LIG   0.0000
  63 H           -0.4273     5.2085     0.2182 H            1    LIG   0.0000
  64 H            1.7266     4.1893     0.4504 H            1    LIG   0.0000
  65 H            2.6068     1.5295     1.3000 H            1    LIG   0.0000
  66 H            3.0799     2.2126    -0.1058 H            1    LIG   0.0000
  67 H            4.1465     1.4536    -2.0024 H            1    LIG   0.0000
  68 H            3.0201     0.2874    -4.3617 H            1    LIG   0.0000
  69 H            4.2423     1.3697    -4.3248 H            1    LIG   0.0000
  70 H            1.4534     2.0443    -4.0027 H            1    LIG   0.0000
  71 H            2.6756     3.1267    -3.9658 H            1    LIG   0.0000
  72 H            3.6057     2.7703    -7.3358 H            1    LIG   0.0000
  73 H            3.9566     3.5587    -5.9494 H            1    LIG   0.0000
  74 H            4.2817     1.9643    -6.0867 H            1    LIG   0.0000
  75 H            1.8091     1.1792    -7.3900 H            1    LIG   0.0000
  76 H            2.4850     0.3733    -6.1409 H            1    LIG   0.0000
  77 H            0.9377     0.8853    -6.0406 H            1    LIG   0.0000
@<TRIPOS>BOND
   1        1        2 1
   2        2        3 1
   3        3        4 1
   4        3        5 1
   5        3        6 1
   6        6        7 1
   7        7        8 1
   8        8        9 1
   9        9       10 1
  10       10       11 1
  11       11        6 1
  12        9       12 1
  13       12       13 1
  14       13        9 1
  15       13       14 1
  16       14       15 2
  17       14       16 am
  18       16       17 1
  19       17       18 1
  20       18       19 ar
  21       19       20 ar
  22       20       21 ar
  23       21       22 ar
  24       22       23 ar
  25       23       18 ar
  26       23       24 1
  27       24       25 1
  28       25       16 1
  29       25       26 1
  30       26       27 2
  31       26       28 am
  32       28       29 1
  33       29       30 1
  34       30       31 1
  35       31       32 1
  36       31       33 1
  37        6       34 1
  38       13       35 1
  39       25       36 1
  40       31       37 1
  41        1       38 1
  42        1       39 1
  43        1       40 1
  44        2       41 1
  45        2       42 1
  46        4       43 1
  47        4       44 1
  48        4       45 1
  49        5       46 1
  50        5       47 1
  51        5       48 1
  52        7       49 1
  53        7       50 1
  54        8       51 1
  55        8       52 1
  56       10       53 1
  57       10       54 1
  58       11       55 1
  59       11       56 1
  60       12       57 1
  61       12       58 1
  62       17       59 1
  63       17       60 1
  64       19       61 1
  65       20       62 1
  66       21       63 1
  67       22       64 1
  68       24       65 1
  69       24       66 1
  70       28       67 1
  71       29       68 1
  72       29       69 1
  73       30       70 1
  74       30       71 1
  75       32       72 1
  76       32       73 1
  77       32       74 1
  78       33       75 1
  79       33       76 1
  80       33       77 1

@<TRIPOS>MOLECULE

  77   80
SMALL
USER_CHARGES
@<TRIPOS>ATOM
   1 C1           5.0835    -9.4601     3.7862 C.3          1    LIG   0.0000
   2 C2           4.9232    -8.2638     2.8624 C.3          1    LIG   0.0000
   3 C3           3.5933    -7.5828     3.1414 C.3          1    LIG   0.0000
   4 C4           3.5572    -7.1149     4.5872 C.3          1    LIG   0.0000
   5 C5           2.4598    -8.5659     2.8986 C.3          1    LIG   0.0000
   6 C6           3.4329    -6.3853     2.2167 C.3          1    LIG   0.0000
   7 C7           2.1030    -5.7014     2.4932 C.3          1    LIG   0.0000
   8 C8           1.9863    -4.5171     1.5436 C.3          1    LIG   0.0000
   9 C9           3.0801    -3.4944     1.7975 C.3          1    LIG   0.0000
  10 C10          4.3830    -4.2203     1.5057 C.3          1    LIG   0.0000
  11 C11          4.5776    -5.4080     2.4345 C.3          1    LIG   0.0000
  12 C12          2.9402    -2.4846     2.9011 C.3          1    LIG   0.0000
  13 C13          2.9434    -2.0302     1.4700 C.3          1    LIG   0.0000
  14 C14          1.5326    -1.5986     1.1035 C.2          1    LIG   0.0000
  15 O15          0.5891    -2.1921     1.5481 O.2          1    LIG   0.0000
  16 N16          1.3336    -0.5065     0.2456 N.am         1    LIG   0.0000
  17 C17         -0.0200    -0.0598    -0.1395 C.3          1    LIG   0.0000
  18 C18         -0.0959     1.4602    -0.0672 C.ar         1    LIG   0.0000
  19 C19         -1.3448     2.0541    -0.2065 C.ar         1    LIG   0.0000
  20 C20         -1.4623     3.4362    -0.0994 C.ar         1    LIG   0.0000
  21 C21         -0.3355     4.2156     0.1418 C.ar         1    LIG   0.0000
  22 C22          0.9177     3.6273     0.2776 C.ar         1    LIG   0.0000
  23 C23          1.0274     2.2493     0.1698 C.ar         1    LIG   0.0000
  24 C24          2.4002     1.6195     0.3257 C.3          1    LIG   0.0000
  25 C25          2.4640     0.2466    -0.3200 C.3          1    LIG   0.0000
  26 C26          2.4049     0.3649    -1.8338 C.2          1    LIG   0.0000
  27 O27          1.4961    -0.1323    -2.4395 O.2          1    LIG   0.0000
  28 N28          3.3892     1.0393    -2.5071 N.am         1    LIG   0.0000
  29 C29          3.3321     1.1537    -3.9715 C.3          1    LIG   0.0000
  30 C30          2.3636     2.2604    -4.3559 C.3          1    LIG   0.0000
  31 N31          2.3065     2.3748    -5.8203 N.4          1    LIG   1.0000
  32 C32          3.6446     2.6924    -6.3395 C.3          1    LIG   0.0000
  33 C33          1.8479     1.1014    -6.3938 C.3          1    LIG   0.0000
  34 H            3.4477    -6.7004     1.2677 H            1    LIG   0.0000
  35 H            3.7278    -1.5253     1.1097 H            1    LIG   0.0000
  36 H            3.3197    -0.1998    -0.0585 H            1    LIG   0.0000
  37 H            1.6694     3.1029    -6.0732 H            1    LIG   0.0000
  38 H            5.9584    -9.9082     3.6027 H            1    LIG   0.0000
  39 H            5.0597    -9.1523     4.7374 H            1    LIG   0.0000
  40 H            4.3378   -10.1070     3.6265 H            1    LIG   0.0000
  41 H            5.6689    -7.6170     3.0221 H            1    LIG   0.0000
  42 H            4.9470    -8.5716     1.9112 H            1    LIG   0.0000
  43 H            3.6626    -7.9019     5.1950 H            1    LIG   0.0000
  44 H            4.3029    -6.4681     4.7469 H            1    LIG   0.0000
  45 H            2.6822    -6.6668     4.7708 H            1    LIG   0.0000
  46 H            2.5652    -9.3530     3.5064 H            1    LIG   0.0000
  47 H            1.5848    -8.1178     3.0822 H            1    LIG   0.0000
  48 H            2.4835    -8.8737     1.9474 H            1    LIG   0.0000
  49 H            2.0743    -5.3825     3.4406 H            1    LIG   0.0000
  50 H            1.3512    -6.3412     2.3340 H            1    LIG   0.0000
  51 H            2.0605    -4.8462     0.6022 H            1    LIG   0.0000
  52 H            1.0960    -4.0810     1.6751 H            1    LIG   0.0000
  53 H            5.1444    -3.5837     1.6280 H            1    LIG   0.0000
  54 H            4.3693    -4.5458     0.5602 H            1    LIG   0.0000
  55 H            5.4475    -5.8568     2.2302 H            1    LIG   0.0000
  56 H            4.5784    -5.0962     3.3847 H            1    LIG   0.0000
  57 H            3.7203    -2.2793     3.4921 H            1    LIG   0.0000
  58 H            2.0965    -2.4433     3.4364 H            1    LIG   0.0000
  59 H           -0.6920    -0.4568     0.4857 H            1    LIG   0.0000
  60 H           -0.2162    -0.3588    -1.0734 H            1    LIG   0.0000
  61 H           -2.1529     1.4920    -0.3824 H            1    LIG   0.0000
  62 H           -2.3581     3.8700    -0.1959 H            1    LIG   0.0000
  63 H           -0.4273     5.2085     0.2182 H            1    LIG   0.0000
  64 H            1.7266     4.1893     0.4504 H            1    LIG   0.0000
  65 H            2.6068     1.5295     1.3000 H            1    LIG   0.0000
  66 H            3.0799     2.2126    -0.1058 H            1    LIG   0.0000
  67 H            4.1465     1.4536    -2.0024 H            1    LIG   0.0000
  68 H            3.0201     0.2874    -4.3617 H            1    LIG   0.0000
  69 H            4.2423     1.3697    -4.3248 H            1    LIG   0.0000
  70 H            1.4534     2.0443    -4.0027 H            1    LIG   0.0000
  71 H            2.6756     3.1267    -3.9658 H            1    LIG   0.0000
  72 H            3.6057     2.7703    -7.3358 H            1    LIG   0.0000
  73 H            3.9566     3.5587    -5.9494 H            1    LIG   0.0000
  74 H            4.2817     1.9643    -6.0867 H            1    LIG   0.0000
  75 H            1.8091     1.1792    -7.3900 H            1    LIG   0.0000
  76 H            2.4850     0.3733    -6.1409 H            1    LIG   0.0000
  77 H            0.9377     0.8853    -6.0406 H            1    LIG   0.0000
@<TRIPOS>BOND
   1        1        2 1
   2        2        3 1
   3        3        4 1
   4        3        5 1
   5        3        6 1
   6        6        7 1
   7        7        8 1
   8        8        9 1
   9        9       10 1
  10       10       11 1
  11       11        6 1
  12        9       12 1
  13       12       13 1
  14       13        9 1
  15       13       14 1
  16       14       15 2
  17       14       16 am
  18       16       17 1
  19       17       18 1
  20       18       19 ar
  21       19       20 ar
  22       20       21 ar
  23       21       22 ar
  24       22       23 ar
  25       23       18 ar
  26       23       24 1
  27       24       25 1
  28       25       16 1
  29       25       26 1
  30       26       27 2
  31       26       28 am
  32       28       29 1
  33       29       30 1
  34       30       31 1
  35       31       32 1
  36       31       33 1
  37        6       34 1
  38       13       35 1
  39       25       36 1
  40       31       37 1
  41        1       38 1
  42        1       39 1
  43        1       40 1
  44        2       41 1
  45        2       42 1
  46        4       43 1
  47        4       44 1
  48        4       45 1
  49        5       46 1
  50        5       47 1
  51        5       48 1
  52        7       49 1
  53        7       50 1
  54        8       51 1
  55        8       52 1
  56       10       53 1
  57       10       54 1
  58       11       55 1
  59       11       56 1
  60       12       57 1
  61       12       58 1
  62       17       59 1
  63       17       60 1
  64       19       61 1
  65       20       62 1
  66       21       63 1
  67       22       64 1
  68       24       65 1
  69       24       66 1
  70       28       67 1
  71       29       68 1
  72       29       69 1
  73       30       70 1
  74       30       71 1
  75       32       72 1
  76       32       73 1
  77       32       74 1
  78       33       75 1
  79       33       76 1
  80       33       77 1

@<TRIPOS>MOLECULE

  77   80
SMALL
USER_CHARGES
@<TRIPOS>ATOM
   1 C1           1.4408     1.0013     8.1463 C.3          1    LIG   0.0000
   2 C2           1.5984    -0.2437     7.2886 C.3          1    LIG   0.0000
   3 C3           0.3301    -0.4664     6.4809 C.3          1    LIG   0.0000
   4 C4           0.0812     0.7370     5.5864 C.3          1    LIG   0.0000
   5 C5          -0.8468    -0.6476     7.4256 C.3          1    LIG   0.0000
   6 C6           0.4878    -1.7115     5.6232 C.3          1    LIG   0.0000
   7 C7           1.6611    -1.5453     4.6731 C.3          1    LIG   0.0000
   8 C8           1.7704    -2.8456     3.8947 C.3          1    LIG   0.0000
   9 C9           0.5506    -3.0150     3.0005 C.3          1    LIG   0.0000
  10 C10         -0.5919    -3.2094     3.9839 C.3          1    LIG   0.0000
  11 C11         -0.7931    -1.9744     4.8474 C.3          1    LIG   0.0000
  12 C12          0.6341    -3.8236     1.7364 C.3          1    LIG   0.0000
  13 C13          0.3364    -2.3510     1.6671 C.3          1    LIG   0.0000
  14 C14          1.5326    -1.5986     1.1035 C.2          1    LIG   0.0000
  15 O15          2.6462    -1.9393     1.3928 O.2          1    LIG   0.0000
  16 N16          1.3336    -0.5065     0.2456 N.am         1    LIG   0.0000
  17 C17         -0.0200    -0.0598    -0.1395 C.3          1    LIG   0.0000
  18 C18         -0.0959     1.4602    -0.0672 C.ar         1    LIG   0.0000
  19 C19         -1.3448     2.0541    -0.2065 C.ar         1    LIG   0.0000
  20 C20         -1.4623     3.4362    -0.0994 C.ar         1    LIG   0.0000
  21 C21         -0.3355     4.2156     0.1418 C.ar         1    LIG   0.0000
  22 C22          0.9177     3.6273     0.2776 C.ar         1    LIG   0.0000
  23 C23          1.0274     2.2493     0.1698 C.ar         1    LIG   0.0000
  24 C24          2.4002     1.6195     0.3257 C.3          1    LIG   0.0000
  25 C25          2.4640     0.2466    -0.3200 C.3          1    LIG   0.0000
  26 C26          2.4049     0.3649    -1.8338 C.2          1    LIG   0.0000
  27 O27          1.4961    -0.1323    -2.4395 O.2          1    LIG   0.0000
  28 N28          3.3892     1.0393    -2.5071 N.am         1    LIG   0.0000
  29 C29          3.3321     1.1537    -3.9715 C.3          1    LIG   0.0000
  30 C30          3.8371    -0.1346    -4.6005 C.3          1    LIG   0.0000
  31 N31          3.7800    -0.0202    -6.0649 N.4          1    LIG   1.0000
  32 C32          2.3913     0.2182    -6.4840 C.3          1    LIG   0.0000
  33 C33          4.6231     1.1018    -6.5020 C.3          1    LIG   0.0000
  34 H            0.6670    -2.4928     6.2211 H            1    LIG   0.0000
  35 H           -0.5849    -2.0541     1.4160 H            1    LIG   0.0000
  36 H            3.3197    -0.1998    -0.0585 H            1    LIG   0.0000
  37 H            4.1122    -0.8678    -6.4787 H            1    LIG   0.0000
  38 H            2.2752     1.1478     8.6776 H            1    LIG   0.0000
  39 H            1.2771     1.7930     7.5577 H            1    LIG   0.0000
  40 H            0.6665     0.8821     8.7677 H            1    LIG   0.0000
  41 H            2.3727    -0.1245     6.6671 H            1    LIG   0.0000
  42 H            1.7622    -1.0354     7.8771 H            1    LIG   0.0000
  43 H           -0.0225     1.5560     6.1506 H            1    LIG   0.0000
  44 H            0.8555     0.8562     4.9649 H            1    LIG   0.0000
  45 H           -0.7532     0.5904     5.0550 H            1    LIG   0.0000
  46 H           -0.9505     0.1714     7.9899 H            1    LIG   0.0000
  47 H           -1.6812    -0.7942     6.8943 H            1    LIG   0.0000
  48 H           -0.6830    -1.4393     8.0141 H            1    LIG   0.0000
  49 H            2.5021    -1.3787     5.1879 H            1    LIG   0.0000
  50 H            1.4954    -0.7816     4.0491 H            1    LIG   0.0000
  51 H            2.5957    -2.8263     3.3303 H            1    LIG   0.0000
  52 H            1.8220    -3.6123     4.5346 H            1    LIG   0.0000
  53 H           -0.3846    -3.9895     4.5743 H            1    LIG   0.0000
  54 H           -1.4330    -3.3913     3.4744 H            1    LIG   0.0000
  55 H           -1.0027    -1.1877     4.2667 H            1    LIG   0.0000
  56 H           -1.5477    -2.1284     5.4852 H            1    LIG   0.0000
  57 H           -0.0807    -4.4887     1.5203 H            1    LIG   0.0000
  58 H            1.5179    -4.1702     1.4222 H            1    LIG   0.0000
  59 H           -0.6920    -0.4568     0.4857 H            1    LIG   0.0000
  60 H           -0.2162    -0.3588    -1.0734 H            1    LIG   0.0000
  61 H           -2.1529     1.4920    -0.3824 H            1    LIG   0.0000
  62 H           -2.3581     3.8700    -0.1959 H            1    LIG   0.0000
  63 H           -0.4273     5.2085     0.2182 H            1    LIG   0.0000
  64 H            1.7266     4.1893     0.4504 H            1    LIG   0.0000
  65 H            2.6068     1.5295     1.3000 H            1    LIG   0.0000
  66 H            3.0799     2.2126    -0.1058 H            1    LIG   0.0000
  67 H            4.1465     1.4536    -2.0024 H            1    LIG   0.0000
  68 H            3.9057     1.9170    -4.2689 H            1    LIG   0.0000
  69 H            2.3874     1.3158    -4.2566 H            1    LIG   0.0000
  70 H            4.7818    -0.2968    -4.3154 H            1    LIG   0.0000
  71 H            3.2635    -0.8979    -4.3032 H            1    LIG   0.0000
  72 H            2.3524     0.2960    -7.4802 H            1    LIG   0.0000
  73 H            1.8177    -0.5451    -6.1867 H            1    LIG   0.0000
  74 H            2.0590     1.0657    -6.0702 H            1    LIG   0.0000
  75 H            4.5843     1.1796    -7.4982 H            1    LIG   0.0000
  76 H            4.2909     1.9494    -6.0882 H            1    LIG   0.0000
  77 H            5.5678     0.9397    -6.2169 H            1    LIG   0.0000
@<TRIPOS>BOND
   1        1        2 1
   2        2        3 1
   3        3        4 1
   4        3        5 1
   5        3        6 1
   6        6        7 1
   7        7        8 1
   8        8        9 1
   9        9       10 1
  10       10       11 1
  11       11        6 1
  12        9       12 1
  13       12       13 1
  14       13        9 1
  15       13       14 1
  16       14       15 2
  17       14       16 am
  18       16       17 1
  19       17       18 1
  20       18       19 ar
  21       19       20 ar
  22       20       21 ar
  23       21       22 ar
  24       22       23 ar
  25       23       18 ar
  26       23       24 1
  27       24       25 1
  28       25       16 1
  29       25       26 1
  30       26       27 2
  31       26       28 am
  32       28       29 1
  33       29       30 1
  34       30       31 1
  35       31       32 1
  36       31       33 1
  37        6       34 1
  38       13       35 1
  39       25       36 1
  40       31       37 1
  41        1       38 1
  42        1       39 1
  43        1       40 1
  44        2       41 1
  45        2       42 1
  46        4       43 1
  47        4       44 1
  48        4       45 1
  49        5       46 1
  50        5       47 1
  51        5       48 1
  52        7       49 1
  53        7       50 1
  54        8       51 1
  55        8       52 1
  56       10       53 1
  57       10       54 1
  58       11       55 1
  59       11       56 1
  60       12       57 1
  61       12       58 1
  62       17       59 1
  63       17       60 1
  64       19       61 1
  65       20       62 1
  66       21       63 1
  67       22       64 1
  68       24       65 1
  69       24       66 1
  70       28       67 1
  71       29       68 1
  72       29       69 1
  73       30       70 1
  74       30       71 1
  75       32       72 1
  76       32       73 1
  77       32       74 1
  78       33       75 1
  79       33       76 1
  80       33       77 1

@<TRIPOS>MOLECULE

  77   80
SMALL
USER_CHARGES
@<TRIPOS>ATOM
   1 C1           2.7628    -6.1571     8.3786 C.3          1    LIG   0.0000
   2 C2           2.4922    -4.9887     7.4448 C.3          1    LIG   0.0000
   3 C3           1.2294    -5.2618     6.6442 C.3          1    LIG   0.0000
   4 C4           0.0549    -5.4341     7.5936 C.3          1    LIG   0.0000
   5 C5           1.4115    -6.5311     5.8279 C.3          1    LIG   0.0000
   6 C6           0.9586    -4.0923     5.7095 C.3          1    LIG   0.0000
   7 C7           2.1319    -3.9170     4.7580 C.3          1    LIG   0.0000
   8 C8           1.8178    -2.7362     3.8497 C.3          1    LIG   0.0000
   9 C9           0.5862    -3.0027     3.0017 C.3          1    LIG   0.0000
  10 C10         -0.5547    -3.1664     3.9924 C.3          1    LIG   0.0000
  11 C11         -0.3181    -4.3453     4.9226 C.3          1    LIG   0.0000
  12 C12          0.6889    -3.8085     1.7379 C.3          1    LIG   0.0000
  13 C13          0.3373    -2.3504     1.6667 C.3          1    LIG   0.0000
  14 C14          1.5326    -1.5986     1.1035 C.2          1    LIG   0.0000
  15 O15          2.6462    -1.9393     1.3928 O.2          1    LIG   0.0000
  16 N16          1.3336    -0.5065     0.2456 N.am         1    LIG   0.0000
  17 C17         -0.0200    -0.0598    -0.1395 C.3          1    LIG   0.0000
  18 C18         -0.0959     1.4602    -0.0672 C.ar         1    LIG   0.0000
  19 C19         -1.3448     2.0541    -0.2065 C.ar         1    LIG   0.0000
  20 C20         -1.4623     3.4362    -0.0994 C.ar         1    LIG   0.0000
  21 C21         -0.3355     4.2156     0.1418 C.ar         1    LIG   0.0000
  22 C22          0.9177     3.6273     0.2776 C.ar         1    LIG   0.0000
  23 C23          1.0274     2.2493     0.1698 C.ar         1    LIG   0.0000
  24 C24          2.4002     1.6195     0.3257 C.3          1    LIG   0.0000
  25 C25          2.4640     0.2466    -0.3200 C.3          1    LIG   0.0000
  26 C26          2.4049     0.3649    -1.8338 C.2          1    LIG   0.0000
  27 O27          1.4961    -0.1323    -2.4395 O.2          1    LIG   0.0000
  28 N28          3.3892     1.0393    -2.5071 N.am         1    LIG   0.0000
  29 C29          3.3321     1.1537    -3.9715 C.3          1    LIG   0.0000
  30 C30          3.8371    -0.1346    -4.6005 C.3          1    LIG   0.0000
  31 N31          3.7800    -0.0202    -6.0649 N.4          1    LIG   1.0000
  32 C32          2.3913     0.2182    -6.4840 C.3          1    LIG   0.0000
  33 C33          4.6231     1.1018    -6.5020 C.3          1    LIG   0.0000
  34 H            0.8493    -3.2589     6.2512 H            1    LIG   0.0000
  35 H           -0.5895    -2.0737     1.4129 H            1    LIG   0.0000
  36 H            3.3197    -0.1998    -0.0585 H            1    LIG   0.0000
  37 H            4.1122    -0.8678    -6.4787 H            1    LIG   0.0000
  38 H            3.5936    -5.9775     8.9053 H            1    LIG   0.0000
  39 H            1.9901    -6.2705     9.0032 H            1    LIG   0.0000
  40 H            2.8826    -6.9922     7.8416 H            1    LIG   0.0000
  41 H            2.3724    -4.1537     7.9818 H            1    LIG   0.0000
  42 H            3.2649    -4.8754     6.8202 H            1    LIG   0.0000
  43 H            0.2329    -6.2028     8.2079 H            1    LIG   0.0000
  44 H           -0.0649    -4.5991     8.1305 H            1    LIG   0.0000
  45 H           -0.7759    -5.6138     7.0668 H            1    LIG   0.0000
  46 H            1.5895    -7.2998     6.4423 H            1    LIG   0.0000
  47 H            0.5807    -6.7108     5.3012 H            1    LIG   0.0000
  48 H            2.1842    -6.4177     5.2033 H            1    LIG   0.0000
  49 H            2.2534    -4.7451     4.2106 H            1    LIG   0.0000
  50 H            2.9671    -3.7350     5.2769 H            1    LIG   0.0000
  51 H            1.6559    -1.9261     4.4132 H            1    LIG   0.0000
  52 H            2.5987    -2.5724     3.2470 H            1    LIG   0.0000
  53 H           -1.4048    -3.3161     3.4876 H            1    LIG   0.0000
  54 H           -0.6336    -2.3322     4.5383 H            1    LIG   0.0000
  55 H           -1.0894    -4.4380     5.5523 H            1    LIG   0.0000
  56 H           -0.2230    -5.1840     4.3864 H            1    LIG   0.0000
  57 H           -0.0026    -4.4999     1.5287 H            1    LIG   0.0000
  58 H            1.5824    -4.1231     1.4173 H            1    LIG   0.0000
  59 H           -0.6920    -0.4568     0.4857 H            1    LIG   0.0000
  60 H           -0.2162    -0.3588    -1.0734 H            1    LIG   0.0000
  61 H           -2.1529     1.4920    -0.3824 H            1    LIG   0.0000
  62 H           -2.3581     3.8700    -0.1959 H            1    LIG   0.0000
  63 H           -0.4273     5.2085     0.2182 H            1    LIG   0.0000
  64 H            1.7266     4.1893     0.4504 H            1    LIG   0.0000
  65 H            2.6068     1.5295     1.3000 H            1    LIG   0.0000
  66 H            3.0799     2.2126    -0.1058 H            1    LIG   0.0000
  67 H            4.1465     1.4536    -2.0024 H            1    LIG   0.0000
  68 H            3.9057     1.9170    -4.2689 H            1    LIG   0.0000
  69 H            2.3874     1.3158    -4.2566 H            1    LIG   0.0000
  70 H            4.7818    -0.2968    -4.3154 H            1    LIG   0.0000
  71 H            3.2635    -0.8979    -4.3032 H            1    LIG   0.0000
  72 H            2.3524     0.2960    -7.4802 H            1    LIG   0.0000
  73 H            1.8177    -0.5451    -6.1867 H            1    LIG   0.0000
  74 H            2.0590     1.0657    -6.0702 H            1    LIG   0.0000
  75 H            4.5843     1.1796    -7.4982 H            1    LIG   0.0000
  76 H            4.2909     1.9494    -6.0882 H            1    LIG   0.0000
  77 H            5.5678     0.9397    -6.2169 H            1    LIG   0.0000
@<TRIPOS>BOND
   1        1        2 1
   2        2        3 1
   3        3        4 1
   4        3        5 1
   5        3        6 1
   6        6        7 1
   7        7        8 1
   8        8        9 1
   9        9       10 1
  10       10       11 1
  11       11        6 1
  12        9       12 1
  13       12       13 1
  14       13        9 1
  15       13       14 1
  16       14       15 2
  17       14       16 am
  18       16       17 1
  19       17       18 1
  20       18       19 ar
  21       19       20 ar
  22       20       21 ar
  23       21       22 ar
  24       22       23 ar
  25       23       18 ar
  26       23       24 1
  27       24       25 1
  28       25       16 1
  29       25       26 1
  30       26       27 2
  31       26       28 am
  32       28       29 1
  33       29       30 1
  34       30       31 1
  35       31       32 1
  36       31       33 1
  37        6       34 1
  38       13       35 1
  39       25       36 1
  40       31       37 1
  41        1       38 1
  42        1       39 1
  43        1       40 1
  44        2       41 1
  45        2       42 1
  46        4       43 1
  47        4       44 1
  48        4       45 1
  49        5       46 1
  50        5       47 1
  51        5       48 1
  52        7       49 1
  53        7       50 1
  54        8       51 1
  55        8       52 1
  56       10       53 1
  57       10       54 1
  58       11       55 1
  59       11       56 1
  60       12       57 1
  61       12       58 1
  62       17       59 1
  63       17       60 1
  64       19       61 1
  65       20       62 1
  66       21       63 1
  67       22       64 1
  68       24       65 1
  69       24       66 1
  70       28       67 1
  71       29       68 1
  72       29       69 1
  73       30       70 1
  74       30       71 1
  75       32       72 1
  76       32       73 1
  77       32       74 1
  78       33       75 1
  79       33       76 1
  80       33       77 1

@<TRIPOS>MOLECULE

  77   80
SMALL
USER_CHARGES
@<TRIPOS>ATOM
   1 C1           3.2125    -5.5690    -3.9308 C.3          1    LIG   0.0000
   2 C2           3.1873    -5.0510    -2.5020 C.3          1    LIG   0.0000
   3 C3           3.3693    -6.2127    -1.5387 C.3          1    LIG   0.0000
   4 C4           4.7027    -6.8905    -1.8085 C.3          1    LIG   0.0000
   5 C5           2.2429    -7.2144    -1.7344 C.3          1    LIG   0.0000
   6 C6           3.3441    -5.6947    -0.1097 C.3          1    LIG   0.0000
   7 C7           2.0165    -5.0140     0.1751 C.3          1    LIG   0.0000
   8 C8           2.0637    -4.5726     1.6282 C.3          1    LIG   0.0000
   9 C9           3.1167    -3.4879     1.8034 C.3          1    LIG   0.0000
  10 C10          4.4268    -4.2131     1.5423 C.3          1    LIG   0.0000
  11 C11          4.4969    -4.7290     0.1139 C.3          1    LIG   0.0000
  12 C12          2.9959    -2.4742     2.9064 C.3          1    LIG   0.0000
  13 C13          2.9444    -2.0305     1.4702 C.3          1    LIG   0.0000
  14 C14          1.5326    -1.5986     1.1035 C.2          1    LIG   0.0000
  15 O15          0.5891    -2.1921     1.5481 O.2          1    LIG   0.0000
  16 N16          1.3336    -0.5065     0.2456 N.am         1    LIG   0.0000
  17 C17         -0.0200    -0.0598    -0.1395 C.3          1    LIG   0.0000
  18 C18         -0.0959     1.4602    -0.0672 C.ar         1    LIG   0.0000
  19 C19         -1.3448     2.0541    -0.2065 C.ar         1    LIG   0.0000
  20 C20         -1.4623     3.4362    -0.0994 C.ar         1    LIG   0.0000
  21 C21         -0.3355     4.2156     0.1418 C.ar         1    LIG   0.0000
  22 C22          0.9177     3.6273     0.2776 C.ar         1    LIG   0.0000
  23 C23          1.0274     2.2493     0.1698 C.ar         1    LIG   0.0000
  24 C24          2.4002     1.6195     0.3257 C.3          1    LIG   0.0000
  25 C25          2.4640     0.2466    -0.3200 C.3          1    LIG   0.0000
  26 C26          2.4049     0.3649    -1.8338 C.2          1    LIG   0.0000
  27 O27          1.4961    -0.1323    -2.4395 O.2          1    LIG   0.0000
  28 N28          3.3892     1.0393    -2.5071 N.am         1    LIG   0.0000
  29 C29          3.3321     1.1537    -3.9715 C.3          1    LIG   0.0000
  30 C30          3.8371    -0.1346    -4.6005 C.3          1    LIG   0.0000
  31 N31          3.7800    -0.0202    -6.0649 N.4          1    LIG   1.0000
  32 C32          2.3913     0.2182    -6.4840 C.3          1    LIG   0.0000
  33 C33          4.6231     1.1018    -6.5020 C.3          1    LIG   0.0000
  34 H            3.4483    -6.4691     0.5144 H            1    LIG   0.0000
  35 H            3.7196    -1.5252     1.0911 H            1    LIG   0.0000
  36 H            3.3197    -0.1998    -0.0585 H            1    LIG   0.0000
  37 H            4.1122    -0.8678    -6.4787 H            1    LIG   0.0000
  38 H            3.0928    -4.8047    -4.5645 H            1    LIG   0.0000
  39 H            4.0898    -6.0149    -4.1083 H            1    LIG   0.0000
  40 H            2.4715    -6.2280    -4.0596 H            1    LIG   0.0000
  41 H            3.9284    -4.3920    -2.3732 H            1    LIG   0.0000
  42 H            2.3101    -4.6051    -2.3245 H            1    LIG   0.0000
  43 H            4.7193    -7.2313    -2.7485 H            1    LIG   0.0000
  44 H            5.4438    -6.2315    -1.6798 H            1    LIG   0.0000
  45 H            4.8224    -7.6548    -1.1748 H            1    LIG   0.0000
  46 H            2.2595    -7.5551    -2.6744 H            1    LIG   0.0000
  47 H            2.3626    -7.9786    -1.1007 H            1    LIG   0.0000
  48 H            1.3656    -6.7684    -1.5569 H            1    LIG   0.0000
  49 H            1.2619    -5.6545     0.0326 H            1    LIG   0.0000
  50 H            1.8987    -4.2216    -0.4234 H            1    LIG   0.0000
  51 H            1.1694    -4.2134     1.8953 H            1    LIG   0.0000
  52 H            2.2944    -5.3557     2.2057 H            1    LIG   0.0000
  53 H            4.5024    -4.9862     2.1721 H            1    LIG   0.0000
  54 H            5.1858    -3.5809     1.6981 H            1    LIG   0.0000
  55 H            4.4237    -3.9632    -0.5249 H            1    LIG   0.0000
  56 H            5.3658    -5.2023    -0.0312 H            1    LIG   0.0000
  57 H            3.7913    -2.2517     3.4701 H            1    LIG   0.0000
  58 H            2.1696    -2.4437     3.4689 H            1    LIG   0.0000
  59 H           -0.6920    -0.4568     0.4857 H            1    LIG   0.0000
  60 H           -0.2162    -0.3588    -1.0734 H            1    LIG   0.0000
  61 H           -2.1529     1.4920    -0.3824 H            1    LIG   0.0000
  62 H           -2.3581     3.8700    -0.1959 H            1    LIG   0.0000
  63 H           -0.4273     5.2085     0.2182 H            1    LIG   0.0000
  64 H            1.7266     4.1893     0.4504 H            1    LIG   0.0000
  65 H            2.6068     1.5295     1.3000 H            1    LIG   0.0000
  66 H            3.0799     2.2126    -0.1058 H            1    LIG   0.0000
  67 H            4.1465     1.4536    -2.0024 H            1    LIG   0.0000
  68 H            3.9057     1.9170    -4.2689 H            1    LIG   0.0000
  69 H            2.3874     1.3158    -4.2566 H            1    LIG   0.0000
  70 H            4.7818    -0.2968    -4.3154 H            1    LIG   0.0000
  71 H            3.2635    -0.8979    -4.3032 H            1    LIG   0.0000
  72 H            2.3524     0.2960    -7.4802 H            1    LIG   0.0000
  73 H            1.8177    -0.5451    -6.1867 H            1    LIG   0.0000
  74 H            2.0590     1.0657    -6.0702 H            1    LIG   0.0000
  75 H            4.5843     1.1796    -7.4982 H            1    LIG   0.0000
  76 H            4.2909     1.9494    -6.0882 H            1    LIG   0.0000
  77 H            5.5678     0.9397    -6.2169 H            1    LIG   0.0000
@<TRIPOS>BOND
   1        1        2 1
   2        2        3 1
   3        3        4 1
   4        3        5 1
   5        3        6 1
   6        6        7 1
   7        7        8 1
   8        8        9 1
   9        9       10 1
  10       10       11 1
  11       11        6 1
  12        9       12 1
  13       12       13 1
  14       13        9 1
  15       13       14 1
  16       14       15 2
  17       14       16 am
  18       16       17 1
  19       17       18 1
  20       18       19 ar
  21       19       20 ar
  22       20       21 ar
  23       21       22 ar
  24       22       23 ar
  25       23       18 ar
  26       23       24 1
  27       24       25 1
  28       25       16 1
  29       25       26 1
  30       26       27 2
  31       26       28 am
  32       28       29 1
  33       29       30 1
  34       30       31 1
  35       31       32 1
  36       31       33 1
  37        6       34 1
  38       13       35 1
  39       25       36 1
  40       31       37 1
  41        1       38 1
  42        1       39 1
  43        1       40 1
  44        2       41 1
  45        2       42 1
  46        4       43 1
  47        4       44 1
  48        4       45 1
  49        5       46 1
  50        5       47 1
  51        5       48 1
  52        7       49 1
  53        7       50 1
  54        8       51 1
  55        8       52 1
  56       10       53 1
  57       10       54 1
  58       11       55 1
  59       11       56 1
  60       12       57 1
  61       12       58 1
  62       17       59 1
  63       17       60 1
  64       19       61 1
  65       20       62 1
  66       21       63 1
  67       22       64 1
  68       24       65 1
  69       24       66 1
  70       28       67 1
  71       29       68 1
  72       29       69 1
  73       30       70 1
  74       30       71 1
  75       32       72 1
  76       32       73 1
  77       32       74 1
  78       33       75 1
  79       33       76 1
  80       33       77 1

@<TRIPOS>MOLECULE

  77   80
SMALL
USER_CHARGES
@<TRIPOS>ATOM
   1 C1           2.4910    -8.5677     5.6278 C.3          1    LIG   0.0000
   2 C2           2.3161    -7.2623     4.8690 C.3          1    LIG   0.0000
   3 C3           3.5463    -7.0043     4.0144 C.3          1    LIG   0.0000
   4 C4           3.7248    -8.1451     3.0258 C.3          1    LIG   0.0000
   5 C5           4.7729    -6.9110     4.9072 C.3          1    LIG   0.0000
   6 C6           3.3715    -5.6999     3.2561 C.3          1    LIG   0.0000
   7 C7           2.1468    -5.7798     2.3584 C.3          1    LIG   0.0000
   8 C8           1.9956    -4.5212     1.5146 C.3          1    LIG   0.0000
   9 C9           3.0819    -3.4885     1.7967 C.3          1    LIG   0.0000
  10 C10          4.4039    -4.1961     1.5351 C.3          1    LIG   0.0000
  11 C11          4.5961    -5.4376     2.3950 C.3          1    LIG   0.0000
  12 C12          2.9179    -2.4819     2.8971 C.3          1    LIG   0.0000
  13 C13          2.9406    -2.0294     1.4692 C.3          1    LIG   0.0000
  14 C14          1.5326    -1.5986     1.1035 C.2          1    LIG   0.0000
  15 O15          0.5891    -2.1921     1.5481 O.2          1    LIG   0.0000
  16 N16          1.3336    -0.5065     0.2456 N.am         1    LIG   0.0000
  17 C17         -0.0200    -0.0598    -0.1395 C.3          1    LIG   0.0000
  18 C18         -0.0959     1.4602    -0.0672 C.ar         1    LIG   0.0000
  19 C19         -1.3448     2.0541    -0.2065 C.ar         1    LIG   0.0000
  20 C20         -1.4623     3.4362    -0.0994 C.ar         1    LIG   0.0000
  21 C21         -0.3355     4.2156     0.1418 C.ar         1    LIG   0.0000
  22 C22          0.9177     3.6273     0.2776 C.ar         1    LIG   0.0000
  23 C23          1.0274     2.2493     0.1698 C.ar         1    LIG   0.0000
  24 C24          2.4002     1.6195     0.3257 C.3          1    LIG   0.0000
  25 C25          2.4640     0.2466    -0.3200 C.3          1    LIG   0.0000
  26 C26          2.4049     0.3649    -1.8338 C.2          1    LIG   0.0000
  27 O27          1.4961    -0.1323    -2.4395 O.2          1    LIG   0.0000
  28 N28          3.3892     1.0393    -2.5071 N.am         1    LIG   0.0000
  29 C29          3.3321     1.1537    -3.9715 C.3          1    LIG   0.0000
  30 C30          3.8371    -0.1346    -4.6005 C.3          1    LIG   0.0000
  31 N31          3.7800    -0.0202    -6.0649 N.4          1    LIG   1.0000
  32 C32          2.3913     0.2182    -6.4840 C.3          1    LIG   0.0000
  33 C33          4.6231     1.1018    -6.5020 C.3          1    LIG   0.0000
  34 H            3.2571    -4.9499     3.9076 H            1    LIG   0.0000
  35 H            3.7257    -1.5177     1.1201 H            1    LIG   0.0000
  36 H            3.3197    -0.1998    -0.0585 H            1    LIG   0.0000
  37 H            4.1122    -0.8678    -6.4787 H            1    LIG   0.0000
  38 H            1.6816    -8.7375     6.1901 H            1    LIG   0.0000
  39 H            2.6084    -9.3182     4.9775 H            1    LIG   0.0000
  40 H            3.2980    -8.5063     6.2152 H            1    LIG   0.0000
  41 H            1.5091    -7.3238     4.2817 H            1    LIG   0.0000
  42 H            2.1986    -6.5119     5.5194 H            1    LIG   0.0000
  43 H            3.8399    -9.0038     3.5250 H            1    LIG   0.0000
  44 H            2.9178    -8.2065     2.4385 H            1    LIG   0.0000
  45 H            4.5341    -7.9753     2.4636 H            1    LIG   0.0000
  46 H            4.8880    -7.7698     5.4064 H            1    LIG   0.0000
  47 H            5.5823    -6.7412     4.3449 H            1    LIG   0.0000
  48 H            4.6555    -6.1605     5.5575 H            1    LIG   0.0000
  49 H            1.3322    -5.8899     2.9279 H            1    LIG   0.0000
  50 H            2.2387    -6.5695     1.7518 H            1    LIG   0.0000
  51 H            2.0401    -4.7765     0.5488 H            1    LIG   0.0000
  52 H            1.1052    -4.1102     1.7101 H            1    LIG   0.0000
  53 H            5.1499    -3.5580     1.7259 H            1    LIG   0.0000
  54 H            4.4351    -4.4672     0.5730 H            1    LIG   0.0000
  55 H            4.7524    -6.2262     1.8003 H            1    LIG   0.0000
  56 H            5.3903    -5.3048     2.9880 H            1    LIG   0.0000
  57 H            3.6871    -2.2712     3.5004 H            1    LIG   0.0000
  58 H            2.0656    -2.4465     3.4190 H            1    LIG   0.0000
  59 H           -0.6920    -0.4568     0.4857 H            1    LIG   0.0000
  60 H           -0.2162    -0.3588    -1.0734 H            1    LIG   0.0000
  61 H           -2.1529     1.4920    -0.3824 H            1    LIG   0.0000
  62 H           -2.3581     3.8700    -0.1959 H            1    LIG   0.0000
  63 H           -0.4273     5.2085     0.2182 H            1    LIG   0.0000
  64 H            1.7266     4.1893     0.4504 H            1    LIG   0.0000
  65 H            2.6068     1.5295     1.3000 H            1    LIG   0.0000
  66 H            3.0799     2.2126    -0.1058 H            1    LIG   0.0000
  67 H            4.1465     1.4536    -2.0024 H            1    LIG   0.0000
  68 H            3.9057     1.9170    -4.2689 H            1    LIG   0.0000
  69 H            2.3874     1.3158    -4.2566 H            1    LIG   0.0000
  70 H            4.7818    -0.2968    -4.3154 H            1    LIG   0.0000
  71 H            3.2635    -0.8979    -4.3032 H            1    LIG   0.0000
  72 H            2.3524     0.2960    -7.4802 H            1    LIG   0.0000
  73 H            1.8177    -0.5451    -6.1867 H            1    LIG   0.0000
  74 H            2.0590     1.0657    -6.0702 H            1    LIG   0.0000
  75 H            4.5843     1.1796    -7.4982 H            1    LIG   0.0000
  76 H            4.2909     1.9494    -6.0882 H            1    LIG   0.0000
  77 H            5.5678     0.9397    -6.2169 H            1    LIG   0.0000
@<TRIPOS>BOND
   1        1        2 1
   2        2        3 1
   3        3        4 1
   4        3        5 1
   5        3        6 1
   6        6        7 1
   7        7        8 1
   8        8        9 1
   9        9       10 1
  10       10       11 1
  11       11        6 1
  12        9       12 1
  13       12       13 1
  14       13        9 1
  15       13       14 1
  16       14       15 2
  17       14       16 am
  18       16       17 1
  19       17       18 1
  20       18       19 ar
  21       19       20 ar
  22       20       21 ar
  23       21       22 ar
  24       22       23 ar
  25       23       18 ar
  26       23       24 1
  27       24       25 1
  28       25       16 1
  29       25       26 1
  30       26       27 2
  31       26       28 am
  32       28       29 1
  33       29       30 1
  34       30       31 1
  35       31       32 1
  36       31       33 1
  37        6       34 1
  38       13       35 1
  39       25       36 1
  40       31       37 1
  41        1       38 1
  42        1       39 1
  43        1       40 1
  44        2       41 1
  45        2       42 1
  46        4       43 1
  47        4       44 1
  48        4       45 1
  49        5       46 1
  50        5       47 1
  51        5       48 1
  52        7       49 1
  53        7       50 1
  54        8       51 1
  55        8       52 1
  56       10       53 1
  57       10       54 1
  58       11       55 1
  59       11       56 1
  60       12       57 1
  61       12       58 1
  62       17       59 1
  63       17       60 1
  64       19       61 1
  65       20       62 1
  66       21       63 1
  67       22       64 1
  68       24       65 1
  69       24       66 1
  70       28       67 1
  71       29       68 1
  72       29       69 1
  73       30       70 1
  74       30       71 1
  75       32       72 1
  76       32       73 1
  77       32       74 1
  78       33       75 1
  79       33       76 1
  80       33       77 1

@<TRIPOS>MOLECULE

  77   80
SMALL
USER_CHARGES
@<TRIPOS>ATOM
   1 C1          -1.3196     2.1699     6.2527 C.3          1    LIG   0.0000
   2 C2          -1.1902     0.9883     5.3053 C.3          1    LIG   0.0000
   3 C3           0.1779     0.3487     5.4769 C.3          1    LIG   0.0000
   4 C4           0.3366    -0.1315     6.9103 C.3          1    LIG   0.0000
   5 C5           1.2581     1.3708     5.1624 C.3          1    LIG   0.0000
   6 C6           0.3071    -0.8320     4.5301 C.3          1    LIG   0.0000
   7 C7           1.6792    -1.4688     4.7062 C.3          1    LIG   0.0000
   8 C8           1.8011    -2.7484     3.8877 C.3          1    LIG   0.0000
   9 C9           0.5834    -3.0040     3.0023 C.3          1    LIG   0.0000
  10 C10         -0.5753    -3.1261     3.9846 C.3          1    LIG   0.0000
  11 C11         -0.7692    -1.8668     4.8179 C.3          1    LIG   0.0000
  12 C12          0.5850    -3.8268     1.7456 C.3          1    LIG   0.0000
  13 C13          0.3406    -2.3484     1.6651 C.3          1    LIG   0.0000
  14 C14          1.5326    -1.5986     1.1035 C.2          1    LIG   0.0000
  15 O15          2.6462    -1.9393     1.3928 O.2          1    LIG   0.0000
  16 N16          1.3336    -0.5065     0.2456 N.am         1    LIG   0.0000
  17 C17         -0.0200    -0.0598    -0.1395 C.3          1    LIG   0.0000
  18 C18         -0.0959     1.4602    -0.0672 C.ar         1    LIG   0.0000
  19 C19         -1.3448     2.0541    -0.2065 C.ar         1    LIG   0.0000
  20 C20         -1.4623     3.4362    -0.0994 C.ar         1    LIG   0.0000
  21 C21         -0.3355     4.2156     0.1418 C.ar         1    LIG   0.0000
  22 C22          0.9177     3.6273     0.2776 C.ar         1    LIG   0.0000
  23 C23          1.0274     2.2493     0.1698 C.ar         1    LIG   0.0000
  24 C24          2.4002     1.6195     0.3257 C.3          1    LIG   0.0000
  25 C25          2.4640     0.2466    -0.3200 C.3          1    LIG   0.0000
  26 C26          2.4049     0.3649    -1.8338 C.2          1    LIG   0.0000
  27 O27          1.4961    -0.1323    -2.4395 O.2          1    LIG   0.0000
  28 N28          3.3892     1.0393    -2.5071 N.am         1    LIG   0.0000
  29 C29          3.3321     1.1537    -3.9715 C.3          1    LIG   0.0000
  30 C30          4.5334     1.9432    -4.4653 C.3          1    LIG   0.0000
  31 N31          4.4763     2.0576    -5.9297 N.4          1    LIG   1.0000
  32 C32          4.4934     0.7146    -6.5272 C.3          1    LIG   0.0000
  33 C33          3.2403     2.7515    -6.3192 C.3          1    LIG   0.0000
  34 H            0.2116    -0.5108     3.5880 H            1    LIG   0.0000
  35 H           -0.5796    -2.0229     1.4478 H            1    LIG   0.0000
  36 H            3.3197    -0.1998    -0.0585 H            1    LIG   0.0000
  37 H            5.2667     2.5771    -6.2546 H            1    LIG   0.0000
  38 H           -2.2197     2.5907     6.1398 H            1    LIG   0.0000
  39 H           -1.2152     1.8539     7.1957 H            1    LIG   0.0000
  40 H           -0.6089     2.8423     6.0459 H            1    LIG   0.0000
  41 H           -1.9009     0.3158     5.5121 H            1    LIG   0.0000
  42 H           -1.2946     1.3042     4.3623 H            1    LIG   0.0000
  43 H            0.2515     0.6458     7.5336 H            1    LIG   0.0000
  44 H           -0.3741    -0.8040     7.1171 H            1    LIG   0.0000
  45 H            1.2367    -0.5523     7.0231 H            1    LIG   0.0000
  46 H            1.1730     2.1482     5.7858 H            1    LIG   0.0000
  47 H            2.1582     0.9500     5.2753 H            1    LIG   0.0000
  48 H            1.1537     1.6867     4.2194 H            1    LIG   0.0000
  49 H            1.8168    -1.6853     5.6727 H            1    LIG   0.0000
  50 H            2.3802    -0.8217     4.4064 H            1    LIG   0.0000
  51 H            2.6108    -2.6788     3.3050 H            1    LIG   0.0000
  52 H            1.9074    -3.5199     4.5151 H            1    LIG   0.0000
  53 H           -0.3943    -3.8931     4.6001 H            1    LIG   0.0000
  54 H           -1.4145    -3.3024     3.4701 H            1    LIG   0.0000
  55 H           -1.6633    -1.4722     4.6061 H            1    LIG   0.0000
  56 H           -0.7337    -2.1107     5.7871 H            1    LIG   0.0000
  57 H           -0.1624    -4.4667     1.5670 H            1    LIG   0.0000
  58 H            1.4418    -4.2105     1.4013 H            1    LIG   0.0000
  59 H           -0.6920    -0.4568     0.4857 H            1    LIG   0.0000
  60 H           -0.2162    -0.3588    -1.0734 H            1    LIG   0.0000
  61 H           -2.1529     1.4920    -0.3824 H            1    LIG   0.0000
  62 H           -2.3581     3.8700    -0.1959 H            1    LIG   0.0000
  63 H           -0.4273     5.2085     0.2182 H            1    LIG   0.0000
  64 H            1.7266     4.1893     0.4504 H            1    LIG   0.0000
  65 H            2.6068     1.5295     1.3000 H            1    LIG   0.0000
  66 H            3.0799     2.2126    -0.1058 H            1    LIG   0.0000
  67 H            4.1465     1.4536    -2.0024 H            1    LIG   0.0000
  68 H            2.4912     1.6257    -4.2365 H            1    LIG   0.0000
  69 H            3.3437     0.2401    -4.3780 H            1    LIG   0.0000
  70 H            4.5218     2.8568    -4.0589 H            1    LIG   0.0000
  71 H            5.3743     1.4712    -4.2004 H            1    LIG   0.0000
  72 H            4.4545     0.7925    -7.5234 H            1    LIG   0.0000
  73 H            5.3342     0.2426    -6.2623 H            1    LIG   0.0000
  74 H            3.7030     0.1952    -6.2023 H            1    LIG   0.0000
  75 H            3.2014     2.8294    -7.3154 H            1    LIG   0.0000
  76 H            2.4499     2.2321    -5.9943 H            1    LIG   0.0000
  77 H            3.2287     3.6651    -5.9127 H            1    LIG   0.0000
@<TRIPOS>BOND
   1        1        2 1
   2        2        3 1
   3        3        4 1
   4        3        5 1
   5        3        6 1
   6        6        7 1
   7        7        8 1
   8        8        9 1
   9        9       10 1
  10       10       11 1
  11       11        6 1
  12        9       12 1
  13       12       13 1
  14       13        9 1
  15       13       14 1
  16       14       15 2
  17       14       16 am
  18       16       17 1
  19       17       18 1
  20       18       19 ar
  21       19       20 ar
  22       20       21 ar
  23       21       22 ar
  24       22       23 ar
  25       23       18 ar
  26       23       24 1
  27       24       25 1
  28       25       16 1
  29       25       26 1
  30       26       27 2
  31       26       28 am
  32       28       29 1
  33       29       30 1
  34       30       31 1
  35       31       32 1
  36       31       33 1
  37        6       34 1
  38       13       35 1
  39       25       36 1
  40       31       37 1
  41        1       38 1
  42        1       39 1
  43        1       40 1
  44        2       41 1
  45        2       42 1
  46        4       43 1
  47        4       44 1
  48        4       45 1
  49        5       46 1
  50        5       47 1
  51        5       48 1
  52        7       49 1
  53        7       50 1
  54        8       51 1
  55        8       52 1
  56       10       53 1
  57       10       54 1
  58       11       55 1
  59       11       56 1
  60       12       57 1
  61       12       58 1
  62       17       59 1
  63       17       60 1
  64       19       61 1
  65       20       62 1
  66       21       63 1
  67       22       64 1
  68       24       65 1
  69       24       66 1
  70       28       67 1
  71       29       68 1
  72       29       69 1
  73       30       70 1
  74       30       71 1
  75       32       72 1
  76       32       73 1
  77       32       74 1
  78       33       75 1
  79       33       76 1
  80       33       77 1

