@<TRIPOS>MOLECULE
*****
 77 80 0 0 0
SMALL
USER_CHARGES

@<TRIPOS>ATOM
      1 C1          5.0835   -9.4601    3.7862 C.3     1  LIG1        0.0000
      2 C2          4.9232   -8.2638    2.8624 C.3     1  LIG1        0.0000
      3 C3          3.5933   -7.5828    3.1414 C.3     1  LIG1        0.0000
      4 C4          3.5572   -7.1149    4.5872 C.3     1  LIG1        0.0000
      5 C5          2.4598   -8.5659    2.8986 C.3     1  LIG1        0.0000
      6 C6          3.4329   -6.3853    2.2167 C.3     1  LIG1        0.0000
      7 C7          2.1030   -5.7014    2.4932 C.3     1  LIG1        0.0000
      8 C8          1.9863   -4.5171    1.5436 C.3     1  LIG1        0.0000
      9 C9          3.0801   -3.4944    1.7975 C.3     1  LIG1        0.0000
     10 C10         4.3830   -4.2203    1.5057 C.3     1  LIG1        0.0000
     11 C11         4.5776   -5.4080    2.4345 C.3     1  LIG1        0.0000
     12 C12         2.9402   -2.4846    2.9011 C.3     1  LIG1        0.0000
     13 C13         2.9434   -2.0302    1.4700 C.3     1  LIG1        0.0000
     14 C14         1.5326   -1.5986    1.1035 C.2     1  LIG1        0.0000
     15 O15         0.5891   -2.1921    1.5481 O.2     1  LIG1        0.0000
     16 N16         1.3336   -0.5065    0.2456 N.am    1  LIG1        0.0000
     17 C17        -0.0200   -0.0598   -0.1395 C.3     1  LIG1        0.0000
     18 C18        -0.0959    1.4602   -0.0672 C.3     1  LIG1        0.0000
     19 C19        -1.3448    2.0541   -0.2065 C.3     1  LIG1        0.0000
     20 C20        -1.4623    3.4362   -0.0994 C.3     1  LIG1        0.0000
     21 C21        -0.3355    4.2156    0.1418 C.3     1  LIG1        0.0000
     22 C22         0.9177    3.6273    0.2776 C.3     1  LIG1        0.0000
     23 C23         1.0274    2.2493    0.1698 C.3     1  LIG1        0.0000
     24 C24         2.4002    1.6195    0.3257 C.3     1  LIG1        0.0000
     25 C25         2.4640    0.2466   -0.3200 C.3     1  LIG1        0.0000
     26 C26         2.4049    0.3649   -1.8338 C.2     1  LIG1        0.0000
     27 O27         1.4961   -0.1323   -2.4395 O.2     1  LIG1        0.0000
     28 N28         3.3892    1.0393   -2.5071 N.am    1  LIG1        0.0000
     29 C29         3.3321    1.1537   -3.9715 C.3     1  LIG1        0.0000
     30 C30         2.3636    2.2604   -4.3559 C.3     1  LIG1        0.0000
     31 N31         2.3065    2.3748   -5.8203 N.4     1  LIG1        1.0000
     32 C32         3.6446    2.6924   -6.3395 C.3     1  LIG1        0.0000
     33 C33         1.8479    1.1014   -6.3938 C.3     1  LIG1        0.0000
     34 H           3.4477   -6.7004    1.2677 H       1  LIG1        0.0000
     35 H           3.7278   -1.5253    1.1097 H       1  LIG1        0.0000
     36 H           3.3197   -0.1998   -0.0585 H       1  LIG1        0.0000
     37 H           1.6694    3.1029   -6.0732 H       1  LIG1        0.0000
     38 H           5.9584   -9.9082    3.6027 H       1  LIG1        0.0000
     39 H           5.0597   -9.1523    4.7374 H       1  LIG1        0.0000
     40 H           4.3378  -10.1070    3.6265 H       1  LIG1        0.0000
     41 H           5.6689   -7.6170    3.0221 H       1  LIG1        0.0000
     42 H           4.9470   -8.5716    1.9112 H       1  LIG1        0.0000
     43 H           3.6626   -7.9019    5.1950 H       1  LIG1        0.0000
     44 H           4.3029   -6.4681    4.7469 H       1  LIG1        0.0000
     45 H           2.6822   -6.6668    4.7708 H       1  LIG1        0.0000
     46 H           2.5652   -9.3530    3.5064 H       1  LIG1        0.0000
     47 H           1.5848   -8.1178    3.0822 H       1  LIG1        0.0000
     48 H           2.4835   -8.8737    1.9474 H       1  LIG1        0.0000
     49 H           2.0743   -5.3825    3.4406 H       1  LIG1        0.0000
     50 H           1.3512   -6.3412    2.3340 H       1  LIG1        0.0000
     51 H           2.0605   -4.8462    0.6022 H       1  LIG1        0.0000
     52 H           1.0960   -4.0810    1.6751 H       1  LIG1        0.0000
     53 H           5.1444   -3.5837    1.6280 H       1  LIG1        0.0000
     54 H           4.3693   -4.5458    0.5602 H       1  LIG1        0.0000
     55 H           5.4475   -5.8568    2.2302 H       1  LIG1        0.0000
     56 H           4.5784   -5.0962    3.3847 H       1  LIG1        0.0000
     57 H           3.7203   -2.2793    3.4921 H       1  LIG1        0.0000
     58 H           2.0965   -2.4433    3.4364 H       1  LIG1        0.0000
     59 H          -0.6920   -0.4568    0.4857 H       1  LIG1        0.0000
     60 H          -0.2162   -0.3588   -1.0734 H       1  LIG1        0.0000
     61 H          -2.1529    1.4920   -0.3824 H       1  LIG1        0.0000
     62 H          -2.3581    3.8700   -0.1959 H       1  LIG1        0.0000
     63 H          -0.4273    5.2085    0.2182 H       1  LIG1        0.0000
     64 H           1.7266    4.1893    0.4504 H       1  LIG1        0.0000
     65 H           2.6068    1.5295    1.3000 H       1  LIG1        0.0000
     66 H           3.0799    2.2126   -0.1058 H       1  LIG1        0.0000
     67 H           4.1465    1.4536   -2.0024 H       1  LIG1        0.0000
     68 H           3.0201    0.2874   -4.3617 H       1  LIG1        0.0000
     69 H           4.2423    1.3697   -4.3248 H       1  LIG1        0.0000
     70 H           1.4534    2.0443   -4.0027 H       1  LIG1        0.0000
     71 H           2.6756    3.1267   -3.9658 H       1  LIG1        0.0000
     72 H           3.6057    2.7703   -7.3358 H       1  LIG1        0.0000
     73 H           3.9566    3.5587   -5.9494 H       1  LIG1        0.0000
     74 H           4.2817    1.9643   -6.0867 H       1  LIG1        0.0000
     75 H           1.8091    1.1792   -7.3900 H       1  LIG1        0.0000
     76 H           2.4850    0.3733   -6.1409 H       1  LIG1        0.0000
     77 H           0.9377    0.8853   -6.0406 H       1  LIG1        0.0000
@<TRIPOS>UNITY_ATOM_ATTR
31 1
charge 1
@<TRIPOS>BOND
     1     1     2    1
     2     2     3    1
     3     3     4    1
     4     3     5    1
     5     3     6    1
     6     6     7    1
     7     7     8    1
     8     8     9    1
     9     9    10    1
    10    10    11    1
    11    11     6    1
    12     9    12    1
    13    12    13    1
    14    13     9    1
    15    13    14    1
    16    14    15    2
    17    14    16   am
    18    16    17    1
    19    17    18    1
    20    18    19   ar
    21    19    20   ar
    22    20    21   ar
    23    21    22   ar
    24    22    23   ar
    25    23    18   ar
    26    23    24    1
    27    24    25    1
    28    25    16    1
    29    25    26    1
    30    26    27    2
    31    26    28   am
    32    28    29    1
    33    29    30    1
    34    30    31    1
    35    31    32    1
    36    31    33    1
    37     6    34    1
    38    13    35    1
    39    25    36    1
    40    31    37    1
    41     1    38    1
    42     1    39    1
    43     1    40    1
    44     2    41    1
    45     2    42    1
    46     4    43    1
    47     4    44    1
    48     4    45    1
    49     5    46    1
    50     5    47    1
    51     5    48    1
    52     7    49    1
    53     7    50    1
    54     8    51    1
    55     8    52    1
    56    10    53    1
    57    10    54    1
    58    11    55    1
    59    11    56    1
    60    12    57    1
    61    12    58    1
    62    17    59    1
    63    17    60    1
    64    19    61    1
    65    20    62    1
    66    21    63    1
    67    22    64    1
    68    24    65    1
    69    24    66    1
    70    28    67    1
    71    29    68    1
    72    29    69    1
    73    30    70    1
    74    30    71    1
    75    32    72    1
    76    32    73    1
    77    32    74    1
    78    33    75    1
    79    33    76    1
    80    33    77    1
