@<TRIPOS>MOLECULE
*****
 77 80 0 0 0
SMALL
USER_CHARGES

@<TRIPOS>ATOM
      1 C1          3.2125   -5.5690   -3.9308 C.3     1  LIG1        0.0000
      2 C2          3.1873   -5.0510   -2.5020 C.3     1  LIG1        0.0000
      3 C3          3.3693   -6.2127   -1.5387 C.3     1  LIG1        0.0000
      4 C4          4.7027   -6.8905   -1.8085 C.3     1  LIG1        0.0000
      5 C5          2.2429   -7.2144   -1.7344 C.3     1  LIG1        0.0000
      6 C6          3.3441   -5.6947   -0.1097 C.3     1  LIG1        0.0000
      7 C7          2.0165   -5.0140    0.1751 C.3     1  LIG1        0.0000
      8 C8          2.0637   -4.5726    1.6282 C.3     1  LIG1        0.0000
      9 C9          3.1167   -3.4879    1.8034 C.3     1  LIG1        0.0000
     10 C10         4.4268   -4.2131    1.5423 C.3     1  LIG1        0.0000
     11 C11         4.4969   -4.7290    0.1139 C.3     1  LIG1        0.0000
     12 C12         2.9959   -2.4742    2.9064 C.3     1  LIG1        0.0000
     13 C13         2.9444   -2.0305    1.4702 C.3     1  LIG1        0.0000
     14 C14         1.5326   -1.5986    1.1035 C.2     1  LIG1        0.0000
     15 O15         0.5891   -2.1921    1.5481 O.2     1  LIG1        0.0000
     16 N16         1.3336   -0.5065    0.2456 N.am    1  LIG1        0.0000
     17 C17        -0.0200   -0.0598   -0.1395 C.3     1  LIG1        0.0000
     18 C18        -0.0959    1.4602   -0.0672 C.3     1  LIG1        0.0000
     19 C19        -1.3448    2.0541   -0.2065 C.3     1  LIG1        0.0000
     20 C20        -1.4623    3.4362   -0.0994 C.3     1  LIG1        0.0000
     21 C21        -0.3355    4.2156    0.1418 C.3     1  LIG1        0.0000
     22 C22         0.9177    3.6273    0.2776 C.3     1  LIG1        0.0000
     23 C23         1.0274    2.2493    0.1698 C.3     1  LIG1        0.0000
     24 C24         2.4002    1.6195    0.3257 C.3     1  LIG1        0.0000
     25 C25         2.4640    0.2466   -0.3200 C.3     1  LIG1        0.0000
     26 C26         2.4049    0.3649   -1.8338 C.2     1  LIG1        0.0000
     27 O27         1.4961   -0.1323   -2.4395 O.2     1  LIG1        0.0000
     28 N28         3.3892    1.0393   -2.5071 N.am    1  LIG1        0.0000
     29 C29         3.3321    1.1537   -3.9715 C.3     1  LIG1        0.0000
     30 C30         3.8371   -0.1346   -4.6005 C.3     1  LIG1        0.0000
     31 N31         3.7800   -0.0202   -6.0649 N.4     1  LIG1        1.0000
     32 C32         2.3913    0.2182   -6.4840 C.3     1  LIG1        0.0000
     33 C33         4.6231    1.1018   -6.5020 C.3     1  LIG1        0.0000
     34 H           3.4483   -6.4691    0.5144 H       1  LIG1        0.0000
     35 H           3.7196   -1.5252    1.0911 H       1  LIG1        0.0000
     36 H           3.3197   -0.1998   -0.0585 H       1  LIG1        0.0000
     37 H           4.1122   -0.8678   -6.4787 H       1  LIG1        0.0000
     38 H           3.0928   -4.8047   -4.5645 H       1  LIG1        0.0000
     39 H           4.0898   -6.0149   -4.1083 H       1  LIG1        0.0000
     40 H           2.4715   -6.2280   -4.0596 H       1  LIG1        0.0000
     41 H           3.9284   -4.3920   -2.3732 H       1  LIG1        0.0000
     42 H           2.3101   -4.6051   -2.3245 H       1  LIG1        0.0000
     43 H           4.7193   -7.2313   -2.7485 H       1  LIG1        0.0000
     44 H           5.4438   -6.2315   -1.6798 H       1  LIG1        0.0000
     45 H           4.8224   -7.6548   -1.1748 H       1  LIG1        0.0000
     46 H           2.2595   -7.5551   -2.6744 H       1  LIG1        0.0000
     47 H           2.3626   -7.9786   -1.1007 H       1  LIG1        0.0000
     48 H           1.3656   -6.7684   -1.5569 H       1  LIG1        0.0000
     49 H           1.2619   -5.6545    0.0326 H       1  LIG1        0.0000
     50 H           1.8987   -4.2216   -0.4234 H       1  LIG1        0.0000
     51 H           1.1694   -4.2134    1.8953 H       1  LIG1        0.0000
     52 H           2.2944   -5.3557    2.2057 H       1  LIG1        0.0000
     53 H           4.5024   -4.9862    2.1721 H       1  LIG1        0.0000
     54 H           5.1858   -3.5809    1.6981 H       1  LIG1        0.0000
     55 H           4.4237   -3.9632   -0.5249 H       1  LIG1        0.0000
     56 H           5.3658   -5.2023   -0.0312 H       1  LIG1        0.0000
     57 H           3.7913   -2.2517    3.4701 H       1  LIG1        0.0000
     58 H           2.1696   -2.4437    3.4689 H       1  LIG1        0.0000
     59 H          -0.6920   -0.4568    0.4857 H       1  LIG1        0.0000
     60 H          -0.2162   -0.3588   -1.0734 H       1  LIG1        0.0000
     61 H          -2.1529    1.4920   -0.3824 H       1  LIG1        0.0000
     62 H          -2.3581    3.8700   -0.1959 H       1  LIG1        0.0000
     63 H          -0.4273    5.2085    0.2182 H       1  LIG1        0.0000
     64 H           1.7266    4.1893    0.4504 H       1  LIG1        0.0000
     65 H           2.6068    1.5295    1.3000 H       1  LIG1        0.0000
     66 H           3.0799    2.2126   -0.1058 H       1  LIG1        0.0000
     67 H           4.1465    1.4536   -2.0024 H       1  LIG1        0.0000
     68 H           3.9057    1.9170   -4.2689 H       1  LIG1        0.0000
     69 H           2.3874    1.3158   -4.2566 H       1  LIG1        0.0000
     70 H           4.7818   -0.2968   -4.3154 H       1  LIG1        0.0000
     71 H           3.2635   -0.8979   -4.3032 H       1  LIG1        0.0000
     72 H           2.3524    0.2960   -7.4802 H       1  LIG1        0.0000
     73 H           1.8177   -0.5451   -6.1867 H       1  LIG1        0.0000
     74 H           2.0590    1.0657   -6.0702 H       1  LIG1        0.0000
     75 H           4.5843    1.1796   -7.4982 H       1  LIG1        0.0000
     76 H           4.2909    1.9494   -6.0882 H       1  LIG1        0.0000
     77 H           5.5678    0.9397   -6.2169 H       1  LIG1        0.0000
@<TRIPOS>UNITY_ATOM_ATTR
31 1
charge 1
@<TRIPOS>BOND
     1     1     2    1
     2     2     3    1
     3     3     4    1
     4     3     5    1
     5     3     6    1
     6     6     7    1
     7     7     8    1
     8     8     9    1
     9     9    10    1
    10    10    11    1
    11    11     6    1
    12     9    12    1
    13    12    13    1
    14    13     9    1
    15    13    14    1
    16    14    15    2
    17    14    16   am
    18    16    17    1
    19    17    18    1
    20    18    19   ar
    21    19    20   ar
    22    20    21   ar
    23    21    22   ar
    24    22    23   ar
    25    23    18   ar
    26    23    24    1
    27    24    25    1
    28    25    16    1
    29    25    26    1
    30    26    27    2
    31    26    28   am
    32    28    29    1
    33    29    30    1
    34    30    31    1
    35    31    32    1
    36    31    33    1
    37     6    34    1
    38    13    35    1
    39    25    36    1
    40    31    37    1
    41     1    38    1
    42     1    39    1
    43     1    40    1
    44     2    41    1
    45     2    42    1
    46     4    43    1
    47     4    44    1
    48     4    45    1
    49     5    46    1
    50     5    47    1
    51     5    48    1
    52     7    49    1
    53     7    50    1
    54     8    51    1
    55     8    52    1
    56    10    53    1
    57    10    54    1
    58    11    55    1
    59    11    56    1
    60    12    57    1
    61    12    58    1
    62    17    59    1
    63    17    60    1
    64    19    61    1
    65    20    62    1
    66    21    63    1
    67    22    64    1
    68    24    65    1
    69    24    66    1
    70    28    67    1
    71    29    68    1
    72    29    69    1
    73    30    70    1
    74    30    71    1
    75    32    72    1
    76    32    73    1
    77    32    74    1
    78    33    75    1
    79    33    76    1
    80    33    77    1
