@<TRIPOS>MOLECULE
*****
 77 80 0 0 0
SMALL
USER_CHARGES

@<TRIPOS>ATOM
      1 C1          3.9761    1.2149   -5.8327 C.3     1  LIG1        0.0000
      2 C2          4.2378    1.3838   -4.3449 C.3     1  LIG1        0.0000
      3 C3          5.7316    1.5330   -4.1069 C.3     1  LIG1        0.0000
      4 C4          6.2442    2.7538   -4.8534 C.3     1  LIG1        0.0000
      5 C5          6.4512    0.2923   -4.6102 C.3     1  LIG1        0.0000
      6 C6          5.9933    1.7020   -2.6190 C.3     1  LIG1        0.0000
      7 C7          5.4861    0.4886   -1.8590 C.3     1  LIG1        0.0000
      8 C8          5.8293    0.7234   -0.3977 C.3     1  LIG1        0.0000
      9 C9          5.0243    1.8983    0.1385 C.3     1  LIG1        0.0000
     10 C10         5.5812    3.0919   -0.6203 C.3     1  LIG1        0.0000
     11 C11         5.3200    2.9677   -2.1129 C.3     1  LIG1        0.0000
     12 C12         4.6901    1.9941    1.6007 C.3     1  LIG1        0.0000
     13 C13         3.5885    1.8514    0.5867 C.3     1  LIG1        0.0000
     14 C14         2.9686    0.4650    0.6752 C.2     1  LIG1        0.0000
     15 O15         3.6616   -0.4890    0.8980 O.2     1  LIG1        0.0000
     16 N16         1.5876    0.3019    0.4966 N.am    1  LIG1        0.0000
     17 C17         1.0366   -1.0598    0.5946 C.3     1  LIG1        0.0000
     18 C18        -0.2905   -1.1181   -0.1471 C.3     1  LIG1        0.0000
     19 C19        -0.6625   -2.2807   -0.8129 C.3     1  LIG1        0.0000
     20 C20        -1.8838   -2.3148   -1.4782 C.3     1  LIG1        0.0000
     21 C21        -2.7359   -1.2153   -1.4779 C.3     1  LIG1        0.0000
     22 C22        -2.3690   -0.0504   -0.8126 C.3     1  LIG1        0.0000
     23 C23        -1.1370   -0.0137   -0.1682 C.3     1  LIG1        0.0000
     24 C24        -0.6906    1.2667    0.5242 C.3     1  LIG1        0.0000
     25 C25         0.7805    1.5031    0.2256 C.3     1  LIG1        0.0000
     26 C26         0.9361    2.0023   -1.2032 C.2     1  LIG1        0.0000
     27 O27         1.6588    1.4228   -1.9659 O.2     1  LIG1        0.0000
     28 N28         0.2510    3.1135   -1.6189 N.am    1  LIG1        0.0000
     29 C29         0.4013    3.5959   -2.9994 C.3     1  LIG1        0.0000
     30 C30         1.6905    4.3921   -3.1203 C.3     1  LIG1        0.0000
     31 N31         1.8408    4.8745   -4.5007 N.4     1  LIG1        1.0000
     32 C32         1.8856    3.7271   -5.4186 C.3     1  LIG1        0.0000
     33 C33         0.6997    5.7342   -4.8464 C.3     1  LIG1        0.0000
     34 H           6.9794    1.7828   -2.4736 H       1  LIG1        0.0000
     35 H           2.9968    2.6358    0.4004 H       1  LIG1        0.0000
     36 H           1.1009    2.2273    0.8361 H       1  LIG1        0.0000
     37 H           2.6889    5.3983   -4.5803 H       1  LIG1        0.0000
     38 H           2.9933    1.1167   -5.9892 H       1  LIG1        0.0000
     39 H           4.3133    2.0180   -6.3238 H       1  LIG1        0.0000
     40 H           4.4495    0.3986   -6.1638 H       1  LIG1        0.0000
     41 H           3.7644    2.2001   -4.0138 H       1  LIG1        0.0000
     42 H           3.9006    0.5807   -3.8538 H       1  LIG1        0.0000
     43 H           6.0720    2.6427   -5.8322 H       1  LIG1        0.0000
     44 H           5.7707    3.5701   -4.5223 H       1  LIG1        0.0000
     45 H           7.2269    2.8520   -4.6969 H       1  LIG1        0.0000
     46 H           6.2791    0.1811   -5.5890 H       1  LIG1        0.0000
     47 H           7.4340    0.3905   -4.4537 H       1  LIG1        0.0000
     48 H           6.1140   -0.5109   -4.1191 H       1  LIG1        0.0000
     49 H           5.9360   -0.3404   -2.1911 H       1  LIG1        0.0000
     50 H           4.4965    0.3988   -1.9717 H       1  LIG1        0.0000
     51 H           5.6111   -0.0972    0.1306 H       1  LIG1        0.0000
     52 H           6.8054    0.9239   -0.3140 H       1  LIG1        0.0000
     53 H           6.5677    3.1450   -0.4655 H       1  LIG1        0.0000
     54 H           5.1452    3.9257   -0.2815 H       1  LIG1        0.0000
     55 H           4.3354    2.9152   -2.2794 H       1  LIG1        0.0000
     56 H           5.6966    3.7628   -2.5882 H       1  LIG1        0.0000
     57 H           4.8137    2.8596    2.0860 H       1  LIG1        0.0000
     58 H           4.9067    1.2343    2.2137 H       1  LIG1        0.0000
     59 H           0.8927   -1.2938    1.5561 H       1  LIG1        0.0000
     60 H           1.6770   -1.7099    0.1856 H       1  LIG1        0.0000
     61 H          -0.0615   -3.0799   -0.8135 H       1  LIG1        0.0000
     62 H          -2.1542   -3.1450   -1.9656 H       1  LIG1        0.0000
     63 H          -3.6128   -1.2625   -1.9563 H       1  LIG1        0.0000
     64 H          -2.9775    0.7430   -0.7979 H       1  LIG1        0.0000
     65 H          -0.8222    1.1774    1.5115 H       1  LIG1        0.0000
     66 H          -1.2298    2.0372    0.1844 H       1  LIG1        0.0000
     67 H          -0.3513    3.5965   -0.9833 H       1  LIG1        0.0000
     68 H          -0.3750    4.1808   -3.2345 H       1  LIG1        0.0000
     69 H           0.4318    2.8154   -3.6238 H       1  LIG1        0.0000
     70 H           1.6600    5.1726   -2.4959 H       1  LIG1        0.0000
     71 H           2.4668    3.8072   -2.8852 H       1  LIG1        0.0000
     72 H           1.9878    4.0553   -6.3577 H       1  LIG1        0.0000
     73 H           2.6618    3.1422   -5.1835 H       1  LIG1        0.0000
     74 H           1.0374    3.2033   -5.3390 H       1  LIG1        0.0000
     75 H           0.8019    6.0624   -5.7854 H       1  LIG1        0.0000
     76 H          -0.1485    5.2105   -4.7668 H       1  LIG1        0.0000
     77 H           0.6692    6.5148   -4.2220 H       1  LIG1        0.0000
@<TRIPOS>UNITY_ATOM_ATTR
31 1
charge 1
@<TRIPOS>BOND
     1     1     2    1
     2     2     3    1
     3     3     4    1
     4     3     5    1
     5     3     6    1
     6     6     7    1
     7     7     8    1
     8     8     9    1
     9     9    10    1
    10    10    11    1
    11    11     6    1
    12     9    12    1
    13    12    13    1
    14    13     9    1
    15    13    14    1
    16    14    15    2
    17    14    16   am
    18    16    17    1
    19    17    18    1
    20    18    19   ar
    21    19    20   ar
    22    20    21   ar
    23    21    22   ar
    24    22    23   ar
    25    23    18   ar
    26    23    24    1
    27    24    25    1
    28    25    16    1
    29    25    26    1
    30    26    27    2
    31    26    28   am
    32    28    29    1
    33    29    30    1
    34    30    31    1
    35    31    32    1
    36    31    33    1
    37     6    34    1
    38    13    35    1
    39    25    36    1
    40    31    37    1
    41     1    38    1
    42     1    39    1
    43     1    40    1
    44     2    41    1
    45     2    42    1
    46     4    43    1
    47     4    44    1
    48     4    45    1
    49     5    46    1
    50     5    47    1
    51     5    48    1
    52     7    49    1
    53     7    50    1
    54     8    51    1
    55     8    52    1
    56    10    53    1
    57    10    54    1
    58    11    55    1
    59    11    56    1
    60    12    57    1
    61    12    58    1
    62    17    59    1
    63    17    60    1
    64    19    61    1
    65    20    62    1
    66    21    63    1
    67    22    64    1
    68    24    65    1
    69    24    66    1
    70    28    67    1
    71    29    68    1
    72    29    69    1
    73    30    70    1
    74    30    71    1
    75    32    72    1
    76    32    73    1
    77    32    74    1
    78    33    75    1
    79    33    76    1
    80    33    77    1
