@<TRIPOS>MOLECULE
*****
 77 80 0 0 0
SMALL
USER_CHARGES

@<TRIPOS>ATOM
      1 C1         -1.3196    2.1699    6.2527 C.3     1  LIG1        0.0000
      2 C2         -1.1902    0.9883    5.3053 C.3     1  LIG1        0.0000
      3 C3          0.1779    0.3487    5.4769 C.3     1  LIG1        0.0000
      4 C4          0.3366   -0.1315    6.9103 C.3     1  LIG1        0.0000
      5 C5          1.2581    1.3708    5.1624 C.3     1  LIG1        0.0000
      6 C6          0.3071   -0.8320    4.5301 C.3     1  LIG1        0.0000
      7 C7          1.6792   -1.4688    4.7062 C.3     1  LIG1        0.0000
      8 C8          1.8011   -2.7484    3.8877 C.3     1  LIG1        0.0000
      9 C9          0.5834   -3.0040    3.0023 C.3     1  LIG1        0.0000
     10 C10        -0.5753   -3.1261    3.9846 C.3     1  LIG1        0.0000
     11 C11        -0.7692   -1.8668    4.8179 C.3     1  LIG1        0.0000
     12 C12         0.5850   -3.8268    1.7456 C.3     1  LIG1        0.0000
     13 C13         0.3406   -2.3484    1.6651 C.3     1  LIG1        0.0000
     14 C14         1.5326   -1.5986    1.1035 C.2     1  LIG1        0.0000
     15 O15         2.6462   -1.9393    1.3928 O.2     1  LIG1        0.0000
     16 N16         1.3336   -0.5065    0.2456 N.am    1  LIG1        0.0000
     17 C17        -0.0200   -0.0598   -0.1395 C.3     1  LIG1        0.0000
     18 C18        -0.0959    1.4602   -0.0672 C.3     1  LIG1        0.0000
     19 C19        -1.3448    2.0541   -0.2065 C.3     1  LIG1        0.0000
     20 C20        -1.4623    3.4362   -0.0994 C.3     1  LIG1        0.0000
     21 C21        -0.3355    4.2156    0.1418 C.3     1  LIG1        0.0000
     22 C22         0.9177    3.6273    0.2776 C.3     1  LIG1        0.0000
     23 C23         1.0274    2.2493    0.1698 C.3     1  LIG1        0.0000
     24 C24         2.4002    1.6195    0.3257 C.3     1  LIG1        0.0000
     25 C25         2.4640    0.2466   -0.3200 C.3     1  LIG1        0.0000
     26 C26         2.4049    0.3649   -1.8338 C.2     1  LIG1        0.0000
     27 O27         1.4961   -0.1323   -2.4395 O.2     1  LIG1        0.0000
     28 N28         3.3892    1.0393   -2.5071 N.am    1  LIG1        0.0000
     29 C29         3.3321    1.1537   -3.9715 C.3     1  LIG1        0.0000
     30 C30         4.5334    1.9432   -4.4653 C.3     1  LIG1        0.0000
     31 N31         4.4763    2.0576   -5.9297 N.4     1  LIG1        1.0000
     32 C32         4.4934    0.7146   -6.5272 C.3     1  LIG1        0.0000
     33 C33         3.2403    2.7515   -6.3192 C.3     1  LIG1        0.0000
     34 H           0.2116   -0.5108    3.5880 H       1  LIG1        0.0000
     35 H          -0.5796   -2.0229    1.4478 H       1  LIG1        0.0000
     36 H           3.3197   -0.1998   -0.0585 H       1  LIG1        0.0000
     37 H           5.2667    2.5771   -6.2546 H       1  LIG1        0.0000
     38 H          -2.2197    2.5907    6.1398 H       1  LIG1        0.0000
     39 H          -1.2152    1.8539    7.1957 H       1  LIG1        0.0000
     40 H          -0.6089    2.8423    6.0459 H       1  LIG1        0.0000
     41 H          -1.9009    0.3158    5.5121 H       1  LIG1        0.0000
     42 H          -1.2946    1.3042    4.3623 H       1  LIG1        0.0000
     43 H           0.2515    0.6458    7.5336 H       1  LIG1        0.0000
     44 H          -0.3741   -0.8040    7.1171 H       1  LIG1        0.0000
     45 H           1.2367   -0.5523    7.0231 H       1  LIG1        0.0000
     46 H           1.1730    2.1482    5.7858 H       1  LIG1        0.0000
     47 H           2.1582    0.9500    5.2753 H       1  LIG1        0.0000
     48 H           1.1537    1.6867    4.2194 H       1  LIG1        0.0000
     49 H           1.8168   -1.6853    5.6727 H       1  LIG1        0.0000
     50 H           2.3802   -0.8217    4.4064 H       1  LIG1        0.0000
     51 H           2.6108   -2.6788    3.3050 H       1  LIG1        0.0000
     52 H           1.9074   -3.5199    4.5151 H       1  LIG1        0.0000
     53 H          -0.3943   -3.8931    4.6001 H       1  LIG1        0.0000
     54 H          -1.4145   -3.3024    3.4701 H       1  LIG1        0.0000
     55 H          -1.6633   -1.4722    4.6061 H       1  LIG1        0.0000
     56 H          -0.7337   -2.1107    5.7871 H       1  LIG1        0.0000
     57 H          -0.1624   -4.4667    1.5670 H       1  LIG1        0.0000
     58 H           1.4418   -4.2105    1.4013 H       1  LIG1        0.0000
     59 H          -0.6920   -0.4568    0.4857 H       1  LIG1        0.0000
     60 H          -0.2162   -0.3588   -1.0734 H       1  LIG1        0.0000
     61 H          -2.1529    1.4920   -0.3824 H       1  LIG1        0.0000
     62 H          -2.3581    3.8700   -0.1959 H       1  LIG1        0.0000
     63 H          -0.4273    5.2085    0.2182 H       1  LIG1        0.0000
     64 H           1.7266    4.1893    0.4504 H       1  LIG1        0.0000
     65 H           2.6068    1.5295    1.3000 H       1  LIG1        0.0000
     66 H           3.0799    2.2126   -0.1058 H       1  LIG1        0.0000
     67 H           4.1465    1.4536   -2.0024 H       1  LIG1        0.0000
     68 H           2.4912    1.6257   -4.2365 H       1  LIG1        0.0000
     69 H           3.3437    0.2401   -4.3780 H       1  LIG1        0.0000
     70 H           4.5218    2.8568   -4.0589 H       1  LIG1        0.0000
     71 H           5.3743    1.4712   -4.2004 H       1  LIG1        0.0000
     72 H           4.4545    0.7925   -7.5234 H       1  LIG1        0.0000
     73 H           5.3342    0.2426   -6.2623 H       1  LIG1        0.0000
     74 H           3.7030    0.1952   -6.2023 H       1  LIG1        0.0000
     75 H           3.2014    2.8294   -7.3154 H       1  LIG1        0.0000
     76 H           2.4499    2.2321   -5.9943 H       1  LIG1        0.0000
     77 H           3.2287    3.6651   -5.9127 H       1  LIG1        0.0000
@<TRIPOS>UNITY_ATOM_ATTR
31 1
charge 1
@<TRIPOS>BOND
     1     1     2    1
     2     2     3    1
     3     3     4    1
     4     3     5    1
     5     3     6    1
     6     6     7    1
     7     7     8    1
     8     8     9    1
     9     9    10    1
    10    10    11    1
    11    11     6    1
    12     9    12    1
    13    12    13    1
    14    13     9    1
    15    13    14    1
    16    14    15    2
    17    14    16   am
    18    16    17    1
    19    17    18    1
    20    18    19   ar
    21    19    20   ar
    22    20    21   ar
    23    21    22   ar
    24    22    23   ar
    25    23    18   ar
    26    23    24    1
    27    24    25    1
    28    25    16    1
    29    25    26    1
    30    26    27    2
    31    26    28   am
    32    28    29    1
    33    29    30    1
    34    30    31    1
    35    31    32    1
    36    31    33    1
    37     6    34    1
    38    13    35    1
    39    25    36    1
    40    31    37    1
    41     1    38    1
    42     1    39    1
    43     1    40    1
    44     2    41    1
    45     2    42    1
    46     4    43    1
    47     4    44    1
    48     4    45    1
    49     5    46    1
    50     5    47    1
    51     5    48    1
    52     7    49    1
    53     7    50    1
    54     8    51    1
    55     8    52    1
    56    10    53    1
    57    10    54    1
    58    11    55    1
    59    11    56    1
    60    12    57    1
    61    12    58    1
    62    17    59    1
    63    17    60    1
    64    19    61    1
    65    20    62    1
    66    21    63    1
    67    22    64    1
    68    24    65    1
    69    24    66    1
    70    28    67    1
    71    29    68    1
    72    29    69    1
    73    30    70    1
    74    30    71    1
    75    32    72    1
    76    32    73    1
    77    32    74    1
    78    33    75    1
    79    33    76    1
    80    33    77    1
