@<TRIPOS>MOLECULE
*****
 77 80 0 0 0
SMALL
USER_CHARGES

@<TRIPOS>ATOM
      1 C1          4.5275   -1.1147    8.2833 C.3     1  LIG1        0.0000
      2 C2          5.1858   -1.1750    6.9145 C.3     1  LIG1        0.0000
      3 C3          4.6113   -0.0826    6.0274 C.3     1  LIG1        0.0000
      4 C4          4.8774    1.2745    6.6582 C.3     1  LIG1        0.0000
      5 C5          3.1125   -0.2869    5.8782 C.3     1  LIG1        0.0000
      6 C6          5.2697   -0.1429    4.6585 C.3     1  LIG1        0.0000
      7 C7          4.7053    0.9439    3.7599 C.3     1  LIG1        0.0000
      8 C8          5.4489    0.8375    2.4391 C.3     1  LIG1        0.0000
      9 C9          5.0957   -0.4742    1.7531 C.3     1  LIG1        0.0000
     10 C10         5.7025   -1.5304    2.6625 C.3     1  LIG1        0.0000
     11 C11         5.0537   -1.5136    4.0373 C.3     1  LIG1        0.0000
     12 C12         5.1704   -0.6006    0.2574 C.3     1  LIG1        0.0000
     13 C13         3.8471   -0.7444    0.9576 C.3     1  LIG1        0.0000
     14 C14         2.9686    0.4650    0.6752 C.2     1  LIG1        0.0000
     15 O15         3.4576    1.5586    0.6054 O.2     1  LIG1        0.0000
     16 N16         1.5876    0.3019    0.4966 N.am    1  LIG1        0.0000
     17 C17         1.0366   -1.0598    0.5946 C.3     1  LIG1        0.0000
     18 C18        -0.2905   -1.1181   -0.1471 C.3     1  LIG1        0.0000
     19 C19        -0.6625   -2.2807   -0.8129 C.3     1  LIG1        0.0000
     20 C20        -1.8838   -2.3148   -1.4782 C.3     1  LIG1        0.0000
     21 C21        -2.7359   -1.2153   -1.4779 C.3     1  LIG1        0.0000
     22 C22        -2.3690   -0.0504   -0.8126 C.3     1  LIG1        0.0000
     23 C23        -1.1370   -0.0137   -0.1682 C.3     1  LIG1        0.0000
     24 C24        -0.6906    1.2667    0.5242 C.3     1  LIG1        0.0000
     25 C25         0.7805    1.5031    0.2256 C.3     1  LIG1        0.0000
     26 C26         0.9361    2.0023   -1.2032 C.2     1  LIG1        0.0000
     27 O27         1.6588    1.4228   -1.9659 O.2     1  LIG1        0.0000
     28 N28         0.2510    3.1135   -1.6189 N.am    1  LIG1        0.0000
     29 C29         0.4013    3.5959   -2.9994 C.3     1  LIG1        0.0000
     30 C30        -0.4674    2.7605   -3.9255 C.3     1  LIG1        0.0000
     31 N31        -0.3171    3.2428   -5.3059 N.4     1  LIG1        1.0000
     32 C32        -0.7335    4.6506   -5.3811 C.3     1  LIG1        0.0000
     33 C33         1.0898    3.1254   -5.7155 C.3     1  LIG1        0.0000
     34 H           6.2521    0.0089    4.7678 H       1  LIG1        0.0000
     35 H           3.4237   -1.6487    1.0126 H       1  LIG1        0.0000
     36 H           1.1009    2.2273    0.8361 H       1  LIG1        0.0000
     37 H          -0.8886    2.6932   -5.9152 H       1  LIG1        0.0000
     38 H           4.9054   -1.8334    8.8669 H       1  LIG1        0.0000
     39 H           4.7025   -0.2219    8.6983 H       1  LIG1        0.0000
     40 H           3.5414   -1.2491    8.1851 H       1  LIG1        0.0000
     41 H           6.1718   -1.0406    7.0127 H       1  LIG1        0.0000
     42 H           5.0108   -2.0678    6.4995 H       1  LIG1        0.0000
     43 H           4.4443    1.3142    7.5587 H       1  LIG1        0.0000
     44 H           5.8634    1.4090    6.7564 H       1  LIG1        0.0000
     45 H           4.4994    1.9932    6.0746 H       1  LIG1        0.0000
     46 H           2.6794   -0.2472    6.7787 H       1  LIG1        0.0000
     47 H           2.7346    0.4318    5.2946 H       1  LIG1        0.0000
     48 H           2.9375   -1.1797    5.4632 H       1  LIG1        0.0000
     49 H           4.8551    1.8437    4.1696 H       1  LIG1        0.0000
     50 H           3.7258    0.8011    3.6179 H       1  LIG1        0.0000
     51 H           5.1882    1.6015    1.8489 H       1  LIG1        0.0000
     52 H           6.4338    0.8686    2.6092 H       1  LIG1        0.0000
     53 H           6.6813   -1.3513    2.7619 H       1  LIG1        0.0000
     54 H           5.5686   -2.4314    2.2500 H       1  LIG1        0.0000
     55 H           4.0738   -1.6932    3.9497 H       1  LIG1        0.0000
     56 H           5.4707   -2.2150    4.6153 H       1  LIG1        0.0000
     57 H           5.6068   -1.4000   -0.1555 H       1  LIG1        0.0000
     58 H           5.3538    0.2064   -0.3039 H       1  LIG1        0.0000
     59 H           0.8927   -1.2938    1.5561 H       1  LIG1        0.0000
     60 H           1.6770   -1.7099    0.1856 H       1  LIG1        0.0000
     61 H          -0.0615   -3.0799   -0.8135 H       1  LIG1        0.0000
     62 H          -2.1542   -3.1450   -1.9656 H       1  LIG1        0.0000
     63 H          -3.6128   -1.2625   -1.9563 H       1  LIG1        0.0000
     64 H          -2.9775    0.7430   -0.7979 H       1  LIG1        0.0000
     65 H          -0.8222    1.1774    1.5115 H       1  LIG1        0.0000
     66 H          -1.2298    2.0372    0.1844 H       1  LIG1        0.0000
     67 H          -0.3513    3.5965   -0.9833 H       1  LIG1        0.0000
     68 H           1.3584    3.5160   -3.2780 H       1  LIG1        0.0000
     69 H           0.1181    4.5536   -3.0505 H       1  LIG1        0.0000
     70 H          -0.1842    1.8028   -3.8743 H       1  LIG1        0.0000
     71 H          -1.4245    2.8403   -3.6468 H       1  LIG1        0.0000
     72 H          -0.6312    4.9788   -6.3202 H       1  LIG1        0.0000
     73 H          -1.6905    4.7305   -5.1024 H       1  LIG1        0.0000
     74 H          -0.1619    5.2003   -4.7718 H       1  LIG1        0.0000
     75 H           1.1921    3.4536   -6.6546 H       1  LIG1        0.0000
     76 H           1.6613    3.6751   -5.1063 H       1  LIG1        0.0000
     77 H           1.3730    2.1677   -5.6644 H       1  LIG1        0.0000
@<TRIPOS>UNITY_ATOM_ATTR
31 1
charge 1
@<TRIPOS>BOND
     1     1     2    1
     2     2     3    1
     3     3     4    1
     4     3     5    1
     5     3     6    1
     6     6     7    1
     7     7     8    1
     8     8     9    1
     9     9    10    1
    10    10    11    1
    11    11     6    1
    12     9    12    1
    13    12    13    1
    14    13     9    1
    15    13    14    1
    16    14    15    2
    17    14    16   am
    18    16    17    1
    19    17    18    1
    20    18    19   ar
    21    19    20   ar
    22    20    21   ar
    23    21    22   ar
    24    22    23   ar
    25    23    18   ar
    26    23    24    1
    27    24    25    1
    28    25    16    1
    29    25    26    1
    30    26    27    2
    31    26    28   am
    32    28    29    1
    33    29    30    1
    34    30    31    1
    35    31    32    1
    36    31    33    1
    37     6    34    1
    38    13    35    1
    39    25    36    1
    40    31    37    1
    41     1    38    1
    42     1    39    1
    43     1    40    1
    44     2    41    1
    45     2    42    1
    46     4    43    1
    47     4    44    1
    48     4    45    1
    49     5    46    1
    50     5    47    1
    51     5    48    1
    52     7    49    1
    53     7    50    1
    54     8    51    1
    55     8    52    1
    56    10    53    1
    57    10    54    1
    58    11    55    1
    59    11    56    1
    60    12    57    1
    61    12    58    1
    62    17    59    1
    63    17    60    1
    64    19    61    1
    65    20    62    1
    66    21    63    1
    67    22    64    1
    68    24    65    1
    69    24    66    1
    70    28    67    1
    71    29    68    1
    72    29    69    1
    73    30    70    1
    74    30    71    1
    75    32    72    1
    76    32    73    1
    77    32    74    1
    78    33    75    1
    79    33    76    1
    80    33    77    1
