@<TRIPOS>MOLECULE
*****
 77 80 0 0 0
SMALL
USER_CHARGES

@<TRIPOS>ATOM
      1 C1         11.0424    1.7612    2.4331 C.3     1  LIG1        0.0000
      2 C2          9.5938    1.5180    2.0420 C.3     1  LIG1        0.0000
      3 C3          9.1061    0.2282    2.6814 C.3     1  LIG1        0.0000
      4 C4          9.2105    0.3412    4.1936 C.3     1  LIG1        0.0000
      5 C5          9.9624   -0.9315    2.1997 C.3     1  LIG1        0.0000
      6 C6          7.6585   -0.0148    2.2907 C.3     1  LIG1        0.0000
      7 C7          6.7902    1.1389    2.7671 C.3     1  LIG1        0.0000
      8 C8          5.3183    0.8827    2.4722 C.3     1  LIG1        0.0000
      9 C9          5.0831   -0.4411    1.7522 C.3     1  LIG1        0.0000
     10 C10         5.6806   -1.5137    2.6520 C.3     1  LIG1        0.0000
     11 C11         7.1621   -1.3008    2.9308 C.3     1  LIG1        0.0000
     12 C12         5.1506   -0.5242    0.2557 C.3     1  LIG1        0.0000
     13 C13         3.8447   -0.7411    0.9569 C.3     1  LIG1        0.0000
     14 C14         2.9686    0.4650    0.6752 C.2     1  LIG1        0.0000
     15 O15         3.4576    1.5586    0.6054 O.2     1  LIG1        0.0000
     16 N16         1.5876    0.3019    0.4966 N.am    1  LIG1        0.0000
     17 C17         1.0366   -1.0598    0.5946 C.3     1  LIG1        0.0000
     18 C18        -0.2905   -1.1181   -0.1471 C.3     1  LIG1        0.0000
     19 C19        -0.6625   -2.2807   -0.8129 C.3     1  LIG1        0.0000
     20 C20        -1.8838   -2.3148   -1.4782 C.3     1  LIG1        0.0000
     21 C21        -2.7359   -1.2153   -1.4779 C.3     1  LIG1        0.0000
     22 C22        -2.3690   -0.0504   -0.8126 C.3     1  LIG1        0.0000
     23 C23        -1.1370   -0.0137   -0.1682 C.3     1  LIG1        0.0000
     24 C24        -0.6906    1.2667    0.5242 C.3     1  LIG1        0.0000
     25 C25         0.7805    1.5031    0.2256 C.3     1  LIG1        0.0000
     26 C26         0.9361    2.0023   -1.2032 C.2     1  LIG1        0.0000
     27 O27         1.6588    1.4228   -1.9659 O.2     1  LIG1        0.0000
     28 N28         0.2510    3.1135   -1.6189 N.am    1  LIG1        0.0000
     29 C29         0.4013    3.5959   -2.9994 C.3     1  LIG1        0.0000
     30 C30         1.6905    4.3921   -3.1203 C.3     1  LIG1        0.0000
     31 N31         1.8408    4.8745   -4.5007 N.4     1  LIG1        1.0000
     32 C32         1.8856    3.7271   -5.4186 C.3     1  LIG1        0.0000
     33 C33         0.6997    5.7342   -4.8464 C.3     1  LIG1        0.0000
     34 H           7.5916   -0.0919    1.2959 H       1  LIG1        0.0000
     35 H           3.4407   -1.6553    0.9881 H       1  LIG1        0.0000
     36 H           1.1009    2.2273    0.8361 H       1  LIG1        0.0000
     37 H           2.6889    5.3983   -4.5803 H       1  LIG1        0.0000
     38 H          11.3632    2.6098    2.0124 H       1  LIG1        0.0000
     39 H          11.1111    1.8355    3.4279 H       1  LIG1        0.0000
     40 H          11.6058    0.9982    2.1161 H       1  LIG1        0.0000
     41 H           9.0304    2.2810    2.3590 H       1  LIG1        0.0000
     42 H           9.5250    1.4437    1.0472 H       1  LIG1        0.0000
     43 H          10.1636    0.5012    4.4509 H       1  LIG1        0.0000
     44 H           8.6471    1.1042    4.5106 H       1  LIG1        0.0000
     45 H           8.8897   -0.5074    4.6143 H       1  LIG1        0.0000
     46 H          10.9154   -0.7716    2.4569 H       1  LIG1        0.0000
     47 H           9.6416   -1.7801    2.6203 H       1  LIG1        0.0000
     48 H           9.8937   -1.0059    1.2048 H       1  LIG1        0.0000
     49 H           7.0751    1.9756    2.2994 H       1  LIG1        0.0000
     50 H           6.9100    1.2510    3.7535 H       1  LIG1        0.0000
     51 H           4.8165    0.8698    3.3371 H       1  LIG1        0.0000
     52 H           4.9734    1.6249    1.8976 H       1  LIG1        0.0000
     53 H           5.5646   -2.4023    2.2084 H       1  LIG1        0.0000
     54 H           5.1889   -1.5090    3.5227 H       1  LIG1        0.0000
     55 H           7.3047   -1.2501    3.9192 H       1  LIG1        0.0000
     56 H           7.6788   -2.0718    2.5585 H       1  LIG1        0.0000
     57 H           5.6168   -1.2934   -0.1816 H       1  LIG1        0.0000
     58 H           5.2960    0.3045   -0.2848 H       1  LIG1        0.0000
     59 H           0.8927   -1.2938    1.5561 H       1  LIG1        0.0000
     60 H           1.6770   -1.7099    0.1856 H       1  LIG1        0.0000
     61 H          -0.0615   -3.0799   -0.8135 H       1  LIG1        0.0000
     62 H          -2.1542   -3.1450   -1.9656 H       1  LIG1        0.0000
     63 H          -3.6128   -1.2625   -1.9563 H       1  LIG1        0.0000
     64 H          -2.9775    0.7430   -0.7979 H       1  LIG1        0.0000
     65 H          -0.8222    1.1774    1.5115 H       1  LIG1        0.0000
     66 H          -1.2298    2.0372    0.1844 H       1  LIG1        0.0000
     67 H          -0.3513    3.5965   -0.9833 H       1  LIG1        0.0000
     68 H          -0.3750    4.1808   -3.2345 H       1  LIG1        0.0000
     69 H           0.4318    2.8154   -3.6238 H       1  LIG1        0.0000
     70 H           1.6600    5.1726   -2.4959 H       1  LIG1        0.0000
     71 H           2.4668    3.8072   -2.8852 H       1  LIG1        0.0000
     72 H           1.9878    4.0553   -6.3577 H       1  LIG1        0.0000
     73 H           2.6618    3.1422   -5.1835 H       1  LIG1        0.0000
     74 H           1.0374    3.2033   -5.3390 H       1  LIG1        0.0000
     75 H           0.8019    6.0624   -5.7854 H       1  LIG1        0.0000
     76 H          -0.1485    5.2105   -4.7668 H       1  LIG1        0.0000
     77 H           0.6692    6.5148   -4.2220 H       1  LIG1        0.0000
@<TRIPOS>UNITY_ATOM_ATTR
31 1
charge 1
@<TRIPOS>BOND
     1     1     2    1
     2     2     3    1
     3     3     4    1
     4     3     5    1
     5     3     6    1
     6     6     7    1
     7     7     8    1
     8     8     9    1
     9     9    10    1
    10    10    11    1
    11    11     6    1
    12     9    12    1
    13    12    13    1
    14    13     9    1
    15    13    14    1
    16    14    15    2
    17    14    16   am
    18    16    17    1
    19    17    18    1
    20    18    19   ar
    21    19    20   ar
    22    20    21   ar
    23    21    22   ar
    24    22    23   ar
    25    23    18   ar
    26    23    24    1
    27    24    25    1
    28    25    16    1
    29    25    26    1
    30    26    27    2
    31    26    28   am
    32    28    29    1
    33    29    30    1
    34    30    31    1
    35    31    32    1
    36    31    33    1
    37     6    34    1
    38    13    35    1
    39    25    36    1
    40    31    37    1
    41     1    38    1
    42     1    39    1
    43     1    40    1
    44     2    41    1
    45     2    42    1
    46     4    43    1
    47     4    44    1
    48     4    45    1
    49     5    46    1
    50     5    47    1
    51     5    48    1
    52     7    49    1
    53     7    50    1
    54     8    51    1
    55     8    52    1
    56    10    53    1
    57    10    54    1
    58    11    55    1
    59    11    56    1
    60    12    57    1
    61    12    58    1
    62    17    59    1
    63    17    60    1
    64    19    61    1
    65    20    62    1
    66    21    63    1
    67    22    64    1
    68    24    65    1
    69    24    66    1
    70    28    67    1
    71    29    68    1
    72    29    69    1
    73    30    70    1
    74    30    71    1
    75    32    72    1
    76    32    73    1
    77    32    74    1
    78    33    75    1
    79    33    76    1
    80    33    77    1
