@<TRIPOS>MOLECULE
*****
 77 80 0 0 0
SMALL
USER_CHARGES

@<TRIPOS>ATOM
      1 C1         11.2722    3.3980   -1.3388 C.3     1  LIG1        0.0000
      2 C2          9.7689    3.2778   -1.5288 C.3     1  LIG1        0.0000
      3 C3          9.2584    2.0617   -0.7733 C.3     1  LIG1        0.0000
      4 C4          9.5713    2.2161    0.7061 C.3     1  LIG1        0.0000
      5 C5          9.9381    0.8114   -1.3071 C.3     1  LIG1        0.0000
      6 C6          7.7537    1.9414   -0.9635 C.3     1  LIG1        0.0000
      7 C7          7.2394    0.7254   -0.2087 C.3     1  LIG1        0.0000
      8 C8          5.7357    0.6445   -0.4328 C.3     1  LIG1        0.0000
      9 C9          5.0253    1.8608    0.1353 C.3     1  LIG1        0.0000
     10 C10         5.5672    3.0443   -0.6494 C.3     1  LIG1        0.0000
     11 C11         7.0670    3.1998   -0.4555 C.3     1  LIG1        0.0000
     12 C12         4.6940    1.9374    1.5987 C.3     1  LIG1        0.0000
     13 C13         3.5880    1.8504    0.5868 C.3     1  LIG1        0.0000
     14 C14         2.9686    0.4650    0.6752 C.2     1  LIG1        0.0000
     15 O15         3.6616   -0.4890    0.8980 O.2     1  LIG1        0.0000
     16 N16         1.5876    0.3019    0.4966 N.am    1  LIG1        0.0000
     17 C17         1.0366   -1.0598    0.5946 C.3     1  LIG1        0.0000
     18 C18        -0.2905   -1.1181   -0.1471 C.3     1  LIG1        0.0000
     19 C19        -0.6625   -2.2807   -0.8129 C.3     1  LIG1        0.0000
     20 C20        -1.8838   -2.3148   -1.4782 C.3     1  LIG1        0.0000
     21 C21        -2.7359   -1.2153   -1.4779 C.3     1  LIG1        0.0000
     22 C22        -2.3690   -0.0504   -0.8126 C.3     1  LIG1        0.0000
     23 C23        -1.1370   -0.0137   -0.1682 C.3     1  LIG1        0.0000
     24 C24        -0.6906    1.2667    0.5242 C.3     1  LIG1        0.0000
     25 C25         0.7805    1.5031    0.2256 C.3     1  LIG1        0.0000
     26 C26         0.9361    2.0023   -1.2032 C.2     1  LIG1        0.0000
     27 O27         1.6588    1.4228   -1.9659 O.2     1  LIG1        0.0000
     28 N28         0.2510    3.1135   -1.6189 N.am    1  LIG1        0.0000
     29 C29         0.4013    3.5959   -2.9994 C.3     1  LIG1        0.0000
     30 C30        -0.4674    2.7605   -3.9255 C.3     1  LIG1        0.0000
     31 N31        -0.3171    3.2428   -5.3059 N.4     1  LIG1        1.0000
     32 C32        -0.7335    4.6506   -5.3811 C.3     1  LIG1        0.0000
     33 C33         1.0898    3.1254   -5.7155 C.3     1  LIG1        0.0000
     34 H           7.5547    1.8304   -1.9372 H       1  LIG1        0.0000
     35 H           3.0066    2.6457    0.4152 H       1  LIG1        0.0000
     36 H           1.1009    2.2273    0.8361 H       1  LIG1        0.0000
     37 H          -0.8886    2.6932   -5.9152 H       1  LIG1        0.0000
     38 H          11.6081    4.1981   -1.8358 H       1  LIG1        0.0000
     39 H          11.4781    3.4996   -0.3655 H       1  LIG1        0.0000
     40 H          11.7194    2.5755   -1.6900 H       1  LIG1        0.0000
     41 H           9.3217    4.1004   -1.1775 H       1  LIG1        0.0000
     42 H           9.5631    3.1763   -2.5021 H       1  LIG1        0.0000
     43 H          10.5603    2.2952    0.8311 H       1  LIG1        0.0000
     44 H           9.1241    3.0387    1.0574 H       1  LIG1        0.0000
     45 H           9.2354    1.4161    1.2032 H       1  LIG1        0.0000
     46 H          10.9271    0.8905   -1.1821 H       1  LIG1        0.0000
     47 H           9.6022    0.0113   -0.8101 H       1  LIG1        0.0000
     48 H           9.7323    0.7098   -2.2804 H       1  LIG1        0.0000
     49 H           7.4336    0.8230    0.7673 H       1  LIG1        0.0000
     50 H           7.6805   -0.1024   -0.5553 H       1  LIG1        0.0000
     51 H           5.5553    0.5915   -1.4150 H       1  LIG1        0.0000
     52 H           5.3835   -0.1770    0.0155 H       1  LIG1        0.0000
     53 H           5.1109    3.8776   -0.3375 H       1  LIG1        0.0000
     54 H           5.3778    2.9042   -1.6212 H       1  LIG1        0.0000
     55 H           7.3930    3.9928   -0.9701 H       1  LIG1        0.0000
     56 H           7.2701    3.3260    0.5155 H       1  LIG1        0.0000
     57 H           4.8454    2.7885    2.1013 H       1  LIG1        0.0000
     58 H           4.8869    1.1588    2.1959 H       1  LIG1        0.0000
     59 H           0.8927   -1.2938    1.5561 H       1  LIG1        0.0000
     60 H           1.6770   -1.7099    0.1856 H       1  LIG1        0.0000
     61 H          -0.0615   -3.0799   -0.8135 H       1  LIG1        0.0000
     62 H          -2.1542   -3.1450   -1.9656 H       1  LIG1        0.0000
     63 H          -3.6128   -1.2625   -1.9563 H       1  LIG1        0.0000
     64 H          -2.9775    0.7430   -0.7979 H       1  LIG1        0.0000
     65 H          -0.8222    1.1774    1.5115 H       1  LIG1        0.0000
     66 H          -1.2298    2.0372    0.1844 H       1  LIG1        0.0000
     67 H          -0.3513    3.5965   -0.9833 H       1  LIG1        0.0000
     68 H           1.3584    3.5160   -3.2780 H       1  LIG1        0.0000
     69 H           0.1181    4.5536   -3.0505 H       1  LIG1        0.0000
     70 H          -0.1842    1.8028   -3.8743 H       1  LIG1        0.0000
     71 H          -1.4245    2.8403   -3.6468 H       1  LIG1        0.0000
     72 H          -0.6312    4.9788   -6.3202 H       1  LIG1        0.0000
     73 H          -1.6905    4.7305   -5.1024 H       1  LIG1        0.0000
     74 H          -0.1619    5.2003   -4.7718 H       1  LIG1        0.0000
     75 H           1.1921    3.4536   -6.6546 H       1  LIG1        0.0000
     76 H           1.6613    3.6751   -5.1063 H       1  LIG1        0.0000
     77 H           1.3730    2.1677   -5.6644 H       1  LIG1        0.0000
@<TRIPOS>UNITY_ATOM_ATTR
31 1
charge 1
@<TRIPOS>BOND
     1     1     2    1
     2     2     3    1
     3     3     4    1
     4     3     5    1
     5     3     6    1
     6     6     7    1
     7     7     8    1
     8     8     9    1
     9     9    10    1
    10    10    11    1
    11    11     6    1
    12     9    12    1
    13    12    13    1
    14    13     9    1
    15    13    14    1
    16    14    15    2
    17    14    16   am
    18    16    17    1
    19    17    18    1
    20    18    19   ar
    21    19    20   ar
    22    20    21   ar
    23    21    22   ar
    24    22    23   ar
    25    23    18   ar
    26    23    24    1
    27    24    25    1
    28    25    16    1
    29    25    26    1
    30    26    27    2
    31    26    28   am
    32    28    29    1
    33    29    30    1
    34    30    31    1
    35    31    32    1
    36    31    33    1
    37     6    34    1
    38    13    35    1
    39    25    36    1
    40    31    37    1
    41     1    38    1
    42     1    39    1
    43     1    40    1
    44     2    41    1
    45     2    42    1
    46     4    43    1
    47     4    44    1
    48     4    45    1
    49     5    46    1
    50     5    47    1
    51     5    48    1
    52     7    49    1
    53     7    50    1
    54     8    51    1
    55     8    52    1
    56    10    53    1
    57    10    54    1
    58    11    55    1
    59    11    56    1
    60    12    57    1
    61    12    58    1
    62    17    59    1
    63    17    60    1
    64    19    61    1
    65    20    62    1
    66    21    63    1
    67    22    64    1
    68    24    65    1
    69    24    66    1
    70    28    67    1
    71    29    68    1
    72    29    69    1
    73    30    70    1
    74    30    71    1
    75    32    72    1
    76    32    73    1
    77    32    74    1
    78    33    75    1
    79    33    76    1
    80    33    77    1
