@<TRIPOS>MOLECULE

  57   60
SMALL
USER_CHARGES
@<TRIPOS>ATOM
   1 C1          -3.2688    -2.7468     6.4417 C.3          1    LIG   0.0000
   2 C2          -1.8245    -2.4526     6.8129 C.3          1    LIG   0.0000
   3 C3          -0.9763    -2.4102     5.5530 C.ar         1    LIG   0.0000
   4 C4          -0.3778    -3.5759     5.0871 C.ar         1    LIG   0.0000
   5 C5           0.3999    -3.5453     3.9342 C.ar         1    LIG   0.0000
   6 C6           0.5692    -2.3402     3.2605 C.ar         1    LIG   0.0000
   7 C7           1.3786    -2.3033     2.0583 C.2          1    LIG   0.0000
   8 N8           2.2796    -3.1842     1.6981 N.2          1    LIG   0.0000
   9 N9           2.8171    -2.8274     0.5514 N.pl3        1    LIG   0.0000
  10 C10          3.8171    -3.5354    -0.1268 C.ar         1    LIG   0.0000
  11 C11          4.3094    -3.0571    -1.3368 C.ar         1    LIG   0.0000
  12 C12          5.3022    -3.7607    -2.0109 C.ar         1    LIG   0.0000
  13 C13          5.8035    -4.9422    -1.4745 C.ar         1    LIG   0.0000
  14 C14          5.3114    -5.4206    -0.2641 C.ar         1    LIG   0.0000
  15 C15          4.3187    -4.7171     0.4098 C.ar         1    LIG   0.0000
  16 C16          3.7812    -5.2395     1.7325 C.3          1    LIG   0.0000
  17 C17          2.2601    -1.6667     0.1113 C.2          1    LIG   0.0000
  18 C18          1.3444    -1.3151     1.0537 C.2          1    LIG   0.0000
  19 C19          0.4916    -0.1416     1.0265 C.2          1    LIG   0.0000
  20 N20          1.0000     1.0000     1.0000 N.2          1    LIG   0.0000
  21 N21          2.3507     1.0000     1.0000 N.pl3        1    LIG   0.0000
  22 C22          3.1467     0.4712     1.9671 C.2          1    LIG   0.0000
  23 S23          2.6354    -0.3272     3.4248 S.2          1    LIG  -1.0000
  24 N24          4.3795     0.6848     1.5796 N.2          1    LIG   0.0000
  25 N25          4.3831     1.3148     0.4225 N.2          1    LIG   0.0000
  26 C26          3.1481     1.5258     0.0364 C.2          1    LIG   0.0000
  27 C27          2.7037     2.2227    -1.2377 C.3          1    LIG   0.0000
  28 C28          1.1850     2.2538    -1.2950 C.3          1    LIG   0.0000
  29 O29          0.7695     2.9054    -2.4863 O.3          1    LIG   0.0000
  30 C30         -0.6399     2.9881    -2.6379 C.3          1    LIG   0.0000
  31 C31         -0.0250    -1.1691     3.7201 C.ar         1    LIG   0.0000
  32 C32         -0.8008    -1.2087     4.8735 C.ar         1    LIG   0.0000
  33 H           -3.8270    -2.7747     7.2709 H            1    LIG   0.0000
  34 H           -3.6097    -2.0292     5.8343 H            1    LIG   0.0000
  35 H           -3.3199    -3.6301     5.9756 H            1    LIG   0.0000
  36 H           -1.7734    -1.5693     7.2789 H            1    LIG   0.0000
  37 H           -1.4836    -3.1702     7.4202 H            1    LIG   0.0000
  38 H           -0.5065    -4.4359     5.5808 H            1    LIG   0.0000
  39 H            0.8324    -4.3802     3.5936 H            1    LIG   0.0000
  40 H            3.9495    -2.2073    -1.7220 H            1    LIG   0.0000
  41 H            5.6554    -3.4172    -2.8811 H            1    LIG   0.0000
  42 H            6.5177    -5.4476    -1.9587 H            1    LIG   0.0000
  43 H            5.6714    -6.2703     0.1213 H            1    LIG   0.0000
  44 H            4.2483    -6.0915     1.9689 H            1    LIG   0.0000
  45 H            3.9426    -4.5610     2.4492 H            1    LIG   0.0000
  46 H            2.7993    -5.4095     1.6495 H            1    LIG   0.0000
  47 H            2.4787    -1.1740    -0.7309 H            1    LIG   0.0000
  48 H           -0.5029    -0.2461     1.0289 H            1    LIG   0.0000
  49 H            3.0570     1.7256    -2.0302 H            1    LIG   0.0000
  50 H            3.0568     3.1582    -1.2465 H            1    LIG   0.0000
  51 H            0.8319     1.3183    -1.2862 H            1    LIG   0.0000
  52 H            0.8317     2.7509    -0.5025 H            1    LIG   0.0000
  53 H           -0.8561     3.4566    -3.4945 H            1    LIG   0.0000
  54 H           -1.0280     2.0666    -2.6549 H            1    LIG   0.0000
  55 H           -1.0282     3.4993    -1.8712 H            1    LIG   0.0000
  56 H            0.1043    -0.3089     3.2268 H            1    LIG   0.0000
  57 H           -1.2326    -0.3737     5.2146 H            1    LIG   0.0000
@<TRIPOS>BOND
   1        1        2 1
   2        2        3 1
   3        3        4 ar
   4        4        5 ar
   5        5        6 ar
   6        6        7 1
   7        7        8 2
   8        8        9 1
   9        9       10 1
  10       10       11 ar
  11       11       12 ar
  12       12       13 ar
  13       13       14 ar
  14       14       15 ar
  15       15       10 ar
  16       15       16 1
  17        9       17 1
  18       17       18 2
  19       18        7 1
  20       18       19 1
  21       19       20 2
  22       20       21 1
  23       21       22 1
  24       22       23 1
  25       22       24 2
  26       24       25 1
  27       25       26 2
  28       26       21 1
  29       26       27 1
  30       27       28 1
  31       28       29 1
  32       29       30 1
  33        6       31 ar
  34       31       32 ar
  35       32        3 ar
  36        1       33 1
  37        1       34 1
  38        1       35 1
  39        2       36 1
  40        2       37 1
  41        4       38 1
  42        5       39 1
  43       11       40 1
  44       12       41 1
  45       13       42 1
  46       14       43 1
  47       16       44 1
  48       16       45 1
  49       16       46 1
  50       17       47 1
  51       19       48 1
  52       27       49 1
  53       27       50 1
  54       28       51 1
  55       28       52 1
  56       30       53 1
  57       30       54 1
  58       30       55 1
  59       31       56 1
  60       32       57 1

@<TRIPOS>MOLECULE

  57   60
SMALL
USER_CHARGES
@<TRIPOS>ATOM
   1 C1          -3.2688    -2.7468     6.4417 C.3          1    LIG   0.0000
   2 C2          -1.8245    -2.4526     6.8129 C.3          1    LIG   0.0000
   3 C3          -0.9763    -2.4102     5.5530 C.ar         1    LIG   0.0000
   4 C4          -0.3778    -3.5759     5.0871 C.ar         1    LIG   0.0000
   5 C5           0.3999    -3.5453     3.9342 C.ar         1    LIG   0.0000
   6 C6           0.5692    -2.3402     3.2605 C.ar         1    LIG   0.0000
   7 C7           1.3786    -2.3033     2.0583 C.2          1    LIG   0.0000
   8 N8           2.2796    -3.1842     1.6981 N.2          1    LIG   0.0000
   9 N9           2.8171    -2.8274     0.5514 N.pl3        1    LIG   0.0000
  10 C10          3.8171    -3.5354    -0.1268 C.ar         1    LIG   0.0000
  11 C11          3.5856    -4.8439    -0.5385 C.ar         1    LIG   0.0000
  12 C12          4.5792    -5.5475    -1.2115 C.ar         1    LIG   0.0000
  13 C13          5.8038    -4.9423    -1.4739 C.ar         1    LIG   0.0000
  14 C14          6.0354    -3.6334    -1.0624 C.ar         1    LIG   0.0000
  15 C15          5.0419    -2.9300    -0.3894 C.ar         1    LIG   0.0000
  16 C16          5.2947    -1.4997     0.0598 C.3          1    LIG   0.0000
  17 C17          2.2601    -1.6667     0.1113 C.2          1    LIG   0.0000
  18 C18          1.3444    -1.3151     1.0537 C.2          1    LIG   0.0000
  19 C19          0.4916    -0.1416     1.0265 C.2          1    LIG   0.0000
  20 N20          1.0000     1.0000     1.0000 N.2          1    LIG   0.0000
  21 N21          2.3507     1.0000     1.0000 N.pl3        1    LIG   0.0000
  22 C22          3.1467     0.4712     1.9671 C.2          1    LIG   0.0000
  23 S23          2.6354    -0.3272     3.4248 S.2          1    LIG  -1.0000
  24 N24          4.3795     0.6848     1.5796 N.2          1    LIG   0.0000
  25 N25          4.3831     1.3148     0.4225 N.2          1    LIG   0.0000
  26 C26          3.1481     1.5258     0.0364 C.2          1    LIG   0.0000
  27 C27          2.7037     2.2227    -1.2377 C.3          1    LIG   0.0000
  28 C28          1.1850     2.2538    -1.2950 C.3          1    LIG   0.0000
  29 O29          0.7695     2.9054    -2.4863 O.3          1    LIG   0.0000
  30 C30         -0.6399     2.9881    -2.6379 C.3          1    LIG   0.0000
  31 C31         -0.0250    -1.1691     3.7201 C.ar         1    LIG   0.0000
  32 C32         -0.8008    -1.2087     4.8735 C.ar         1    LIG   0.0000
  33 H           -3.8270    -2.7747     7.2709 H            1    LIG   0.0000
  34 H           -3.6097    -2.0292     5.8343 H            1    LIG   0.0000
  35 H           -3.3199    -3.6301     5.9756 H            1    LIG   0.0000
  36 H           -1.7734    -1.5693     7.2789 H            1    LIG   0.0000
  37 H           -1.4836    -3.1702     7.4202 H            1    LIG   0.0000
  38 H           -0.5065    -4.4359     5.5808 H            1    LIG   0.0000
  39 H            0.8324    -4.3802     3.5936 H            1    LIG   0.0000
  40 H            2.7049    -5.2788    -0.3506 H            1    LIG   0.0000
  41 H            4.4130    -6.4884    -1.5066 H            1    LIG   0.0000
  42 H            6.5178    -5.4479    -1.9582 H            1    LIG   0.0000
  43 H            6.9160    -3.1985    -1.2505 H            1    LIG   0.0000
  44 H            6.2180    -1.2245    -0.2080 H            1    LIG   0.0000
  45 H            4.6275    -0.8922    -0.3712 H            1    LIG   0.0000
  46 H            5.2048    -1.4418     1.0541 H            1    LIG   0.0000
  47 H            2.4787    -1.1740    -0.7309 H            1    LIG   0.0000
  48 H           -0.5029    -0.2461     1.0289 H            1    LIG   0.0000
  49 H            3.0570     1.7256    -2.0302 H            1    LIG   0.0000
  50 H            3.0568     3.1582    -1.2465 H            1    LIG   0.0000
  51 H            0.8319     1.3183    -1.2862 H            1    LIG   0.0000
  52 H            0.8317     2.7509    -0.5025 H            1    LIG   0.0000
  53 H           -0.8561     3.4566    -3.4945 H            1    LIG   0.0000
  54 H           -1.0280     2.0666    -2.6549 H            1    LIG   0.0000
  55 H           -1.0282     3.4993    -1.8712 H            1    LIG   0.0000
  56 H            0.1043    -0.3089     3.2268 H            1    LIG   0.0000
  57 H           -1.2326    -0.3737     5.2146 H            1    LIG   0.0000
@<TRIPOS>BOND
   1        1        2 1
   2        2        3 1
   3        3        4 ar
   4        4        5 ar
   5        5        6 ar
   6        6        7 1
   7        7        8 2
   8        8        9 1
   9        9       10 1
  10       10       11 ar
  11       11       12 ar
  12       12       13 ar
  13       13       14 ar
  14       14       15 ar
  15       15       10 ar
  16       15       16 1
  17        9       17 1
  18       17       18 2
  19       18        7 1
  20       18       19 1
  21       19       20 2
  22       20       21 1
  23       21       22 1
  24       22       23 1
  25       22       24 2
  26       24       25 1
  27       25       26 2
  28       26       21 1
  29       26       27 1
  30       27       28 1
  31       28       29 1
  32       29       30 1
  33        6       31 ar
  34       31       32 ar
  35       32        3 ar
  36        1       33 1
  37        1       34 1
  38        1       35 1
  39        2       36 1
  40        2       37 1
  41        4       38 1
  42        5       39 1
  43       11       40 1
  44       12       41 1
  45       13       42 1
  46       14       43 1
  47       16       44 1
  48       16       45 1
  49       16       46 1
  50       17       47 1
  51       19       48 1
  52       27       49 1
  53       27       50 1
  54       28       51 1
  55       28       52 1
  56       30       53 1
  57       30       54 1
  58       30       55 1
  59       31       56 1
  60       32       57 1

@<TRIPOS>MOLECULE

  57   60
SMALL
USER_CHARGES
@<TRIPOS>ATOM
   1 C1          -3.2688    -2.7468     6.4417 C.3          1    LIG   0.0000
   2 C2          -1.8245    -2.4526     6.8129 C.3          1    LIG   0.0000
   3 C3          -0.9763    -2.4102     5.5530 C.ar         1    LIG   0.0000
   4 C4          -0.3778    -3.5759     5.0871 C.ar         1    LIG   0.0000
   5 C5           0.3999    -3.5453     3.9342 C.ar         1    LIG   0.0000
   6 C6           0.5692    -2.3402     3.2605 C.ar         1    LIG   0.0000
   7 C7           1.3786    -2.3033     2.0583 C.2          1    LIG   0.0000
   8 N8           2.2796    -3.1842     1.6981 N.2          1    LIG   0.0000
   9 N9           2.8171    -2.8274     0.5514 N.pl3        1    LIG   0.0000
  10 C10          3.8171    -3.5354    -0.1268 C.ar         1    LIG   0.0000
  11 C11          5.0464    -3.7604     0.4842 C.ar         1    LIG   0.0000
  12 C12          6.0400    -4.4630    -0.1897 C.ar         1    LIG   0.0000
  13 C13          5.8040    -4.9418    -1.4742 C.ar         1    LIG   0.0000
  14 C14          4.5743    -4.7170    -2.0854 C.ar         1    LIG   0.0000
  15 C15          3.5809    -4.0144    -1.4116 C.ar         1    LIG   0.0000
  16 C16          2.2372    -3.7693    -2.0791 C.3          1    LIG   0.0000
  17 C17          2.2601    -1.6667     0.1113 C.2          1    LIG   0.0000
  18 C18          1.3444    -1.3151     1.0537 C.2          1    LIG   0.0000
  19 C19          0.4916    -0.1416     1.0265 C.2          1    LIG   0.0000
  20 N20          1.0000     1.0000     1.0000 N.2          1    LIG   0.0000
  21 N21          2.3507     1.0000     1.0000 N.pl3        1    LIG   0.0000
  22 C22          3.1467     0.4712     1.9671 C.2          1    LIG   0.0000
  23 S23          2.6354    -0.3272     3.4248 S.2          1    LIG  -1.0000
  24 N24          4.3795     0.6848     1.5796 N.2          1    LIG   0.0000
  25 N25          4.3831     1.3148     0.4225 N.2          1    LIG   0.0000
  26 C26          3.1481     1.5258     0.0364 C.2          1    LIG   0.0000
  27 C27          2.7037     2.2227    -1.2377 C.3          1    LIG   0.0000
  28 C28          1.1850     2.2538    -1.2950 C.3          1    LIG   0.0000
  29 O29          0.7695     2.9054    -2.4863 O.3          1    LIG   0.0000
  30 C30         -0.6399     2.9881    -2.6379 C.3          1    LIG   0.0000
  31 C31         -0.0250    -1.1691     3.7201 C.ar         1    LIG   0.0000
  32 C32         -0.8008    -1.2087     4.8735 C.ar         1    LIG   0.0000
  33 H           -3.8270    -2.7747     7.2709 H            1    LIG   0.0000
  34 H           -3.6097    -2.0292     5.8343 H            1    LIG   0.0000
  35 H           -3.3199    -3.6301     5.9756 H            1    LIG   0.0000
  36 H           -1.7734    -1.5693     7.2789 H            1    LIG   0.0000
  37 H           -1.4836    -3.1702     7.4202 H            1    LIG   0.0000
  38 H           -0.5065    -4.4359     5.5808 H            1    LIG   0.0000
  39 H            0.8324    -4.3802     3.5936 H            1    LIG   0.0000
  40 H            5.2158    -3.4169     1.4080 H            1    LIG   0.0000
  41 H            6.9240    -4.6239     0.2493 H            1    LIG   0.0000
  42 H            6.5181    -5.4474    -1.9584 H            1    LIG   0.0000
  43 H            4.4048    -5.0607    -3.0091 H            1    LIG   0.0000
  44 H            2.2388    -4.1781    -2.9917 H            1    LIG   0.0000
  45 H            1.5115    -4.1834    -1.5297 H            1    LIG   0.0000
  46 H            2.0773    -2.7850    -2.1550 H            1    LIG   0.0000
  47 H            2.4787    -1.1740    -0.7309 H            1    LIG   0.0000
  48 H           -0.5029    -0.2461     1.0289 H            1    LIG   0.0000
  49 H            3.0570     1.7256    -2.0302 H            1    LIG   0.0000
  50 H            3.0568     3.1582    -1.2465 H            1    LIG   0.0000
  51 H            0.8319     1.3183    -1.2862 H            1    LIG   0.0000
  52 H            0.8317     2.7509    -0.5025 H            1    LIG   0.0000
  53 H           -0.8561     3.4566    -3.4945 H            1    LIG   0.0000
  54 H           -1.0280     2.0666    -2.6549 H            1    LIG   0.0000
  55 H           -1.0282     3.4993    -1.8712 H            1    LIG   0.0000
  56 H            0.1043    -0.3089     3.2268 H            1    LIG   0.0000
  57 H           -1.2326    -0.3737     5.2146 H            1    LIG   0.0000
@<TRIPOS>BOND
   1        1        2 1
   2        2        3 1
   3        3        4 ar
   4        4        5 ar
   5        5        6 ar
   6        6        7 1
   7        7        8 2
   8        8        9 1
   9        9       10 1
  10       10       11 ar
  11       11       12 ar
  12       12       13 ar
  13       13       14 ar
  14       14       15 ar
  15       15       10 ar
  16       15       16 1
  17        9       17 1
  18       17       18 2
  19       18        7 1
  20       18       19 1
  21       19       20 2
  22       20       21 1
  23       21       22 1
  24       22       23 1
  25       22       24 2
  26       24       25 1
  27       25       26 2
  28       26       21 1
  29       26       27 1
  30       27       28 1
  31       28       29 1
  32       29       30 1
  33        6       31 ar
  34       31       32 ar
  35       32        3 ar
  36        1       33 1
  37        1       34 1
  38        1       35 1
  39        2       36 1
  40        2       37 1
  41        4       38 1
  42        5       39 1
  43       11       40 1
  44       12       41 1
  45       13       42 1
  46       14       43 1
  47       16       44 1
  48       16       45 1
  49       16       46 1
  50       17       47 1
  51       19       48 1
  52       27       49 1
  53       27       50 1
  54       28       51 1
  55       28       52 1
  56       30       53 1
  57       30       54 1
  58       30       55 1
  59       31       56 1
  60       32       57 1

@<TRIPOS>MOLECULE

  57   60
SMALL
USER_CHARGES
@<TRIPOS>ATOM
   1 C1          -1.7413    -1.1091     7.5218 C.3          1    LIG   0.0000
   2 C2          -1.8213    -2.4524     6.8150 C.3          1    LIG   0.0000
   3 C3          -0.9758    -2.4119     5.5533 C.ar         1    LIG   0.0000
   4 C4           0.3637    -2.7814     5.6107 C.ar         1    LIG   0.0000
   5 C5           1.1443    -2.7473     4.4599 C.ar         1    LIG   0.0000
   6 C6           0.5692    -2.3402     3.2605 C.ar         1    LIG   0.0000
   7 C7           1.3786    -2.3033     2.0583 C.2          1    LIG   0.0000
   8 N8           2.2796    -3.1842     1.6981 N.2          1    LIG   0.0000
   9 N9           2.8171    -2.8274     0.5514 N.pl3        1    LIG   0.0000
  10 C10          3.8171    -3.5354    -0.1268 C.ar         1    LIG   0.0000
  11 C11          5.0420    -2.9303    -0.3889 C.ar         1    LIG   0.0000
  12 C12          6.0351    -3.6333    -1.0632 C.ar         1    LIG   0.0000
  13 C13          5.8038    -4.9418    -1.4745 C.ar         1    LIG   0.0000
  14 C14          4.5787    -5.5473    -1.2122 C.ar         1    LIG   0.0000
  15 C15          3.5857    -4.8443    -0.5380 C.ar         1    LIG   0.0000
  16 C16          2.2474    -5.5059    -0.2510 C.3          1    LIG   0.0000
  17 C17          2.2601    -1.6667     0.1113 C.2          1    LIG   0.0000
  18 C18          1.3444    -1.3151     1.0537 C.2          1    LIG   0.0000
  19 C19          0.4916    -0.1416     1.0265 C.2          1    LIG   0.0000
  20 N20          1.0000     1.0000     1.0000 N.2          1    LIG   0.0000
  21 N21          2.3507     1.0000     1.0000 N.pl3        1    LIG   0.0000
  22 C22          3.1467     0.4712     1.9671 C.2          1    LIG   0.0000
  23 S23          2.6354    -0.3272     3.4248 S.2          1    LIG  -1.0000
  24 N24          4.3795     0.6848     1.5796 N.2          1    LIG   0.0000
  25 N25          4.3831     1.3148     0.4225 N.2          1    LIG   0.0000
  26 C26          3.1481     1.5258     0.0364 C.2          1    LIG   0.0000
  27 C27          2.7037     2.2227    -1.2377 C.3          1    LIG   0.0000
  28 C28          1.1850     2.2538    -1.2950 C.3          1    LIG   0.0000
  29 O29          0.7695     2.9054    -2.4863 O.3          1    LIG   0.0000
  30 C30         -0.6399     2.9881    -2.6379 C.3          1    LIG   0.0000
  31 C31         -0.7697    -1.9678     3.1942 C.ar         1    LIG   0.0000
  32 C32         -1.5428    -2.0049     4.3495 C.ar         1    LIG   0.0000
  33 H           -2.2978    -1.1358     8.3522 H            1    LIG   0.0000
  34 H           -0.7905    -0.9159     7.7638 H            1    LIG   0.0000
  35 H           -2.0830    -0.3920     6.9144 H            1    LIG   0.0000
  36 H           -1.4796    -3.1696     7.4224 H            1    LIG   0.0000
  37 H           -2.7722    -2.6456     6.5730 H            1    LIG   0.0000
  38 H            0.7656    -3.0715     6.4792 H            1    LIG   0.0000
  39 H            2.1079    -3.0124     4.4944 H            1    LIG   0.0000
  40 H            5.2086    -1.9899    -0.0925 H            1    LIG   0.0000
  41 H            6.9152    -3.1980    -1.2523 H            1    LIG   0.0000
  42 H            6.5179    -5.4474    -1.9586 H            1    LIG   0.0000
  43 H            4.4121    -6.4878    -1.5084 H            1    LIG   0.0000
  44 H            2.2521    -6.4382    -0.6126 H            1    LIG   0.0000
  45 H            2.0936    -5.5322     0.7367 H            1    LIG   0.0000
  46 H            1.5162    -4.9824    -0.6884 H            1    LIG   0.0000
  47 H            2.4787    -1.1740    -0.7309 H            1    LIG   0.0000
  48 H           -0.5029    -0.2461     1.0289 H            1    LIG   0.0000
  49 H            3.0570     1.7256    -2.0302 H            1    LIG   0.0000
  50 H            3.0568     3.1582    -1.2465 H            1    LIG   0.0000
  51 H            0.8319     1.3183    -1.2862 H            1    LIG   0.0000
  52 H            0.8317     2.7509    -0.5025 H            1    LIG   0.0000
  53 H           -0.8561     3.4566    -3.4945 H            1    LIG   0.0000
  54 H           -1.0280     2.0666    -2.6549 H            1    LIG   0.0000
  55 H           -1.0282     3.4993    -1.8712 H            1    LIG   0.0000
  56 H           -1.1714    -1.6770     2.3259 H            1    LIG   0.0000
  57 H           -2.5062    -1.7390     4.3153 H            1    LIG   0.0000
@<TRIPOS>BOND
   1        1        2 1
   2        2        3 1
   3        3        4 ar
   4        4        5 ar
   5        5        6 ar
   6        6        7 1
   7        7        8 2
   8        8        9 1
   9        9       10 1
  10       10       11 ar
  11       11       12 ar
  12       12       13 ar
  13       13       14 ar
  14       14       15 ar
  15       15       10 ar
  16       15       16 1
  17        9       17 1
  18       17       18 2
  19       18        7 1
  20       18       19 1
  21       19       20 2
  22       20       21 1
  23       21       22 1
  24       22       23 1
  25       22       24 2
  26       24       25 1
  27       25       26 2
  28       26       21 1
  29       26       27 1
  30       27       28 1
  31       28       29 1
  32       29       30 1
  33        6       31 ar
  34       31       32 ar
  35       32        3 ar
  36        1       33 1
  37        1       34 1
  38        1       35 1
  39        2       36 1
  40        2       37 1
  41        4       38 1
  42        5       39 1
  43       11       40 1
  44       12       41 1
  45       13       42 1
  46       14       43 1
  47       16       44 1
  48       16       45 1
  49       16       46 1
  50       17       47 1
  51       19       48 1
  52       27       49 1
  53       27       50 1
  54       28       51 1
  55       28       52 1
  56       30       53 1
  57       30       54 1
  58       30       55 1
  59       31       56 1
  60       32       57 1

@<TRIPOS>MOLECULE

  57   60
SMALL
USER_CHARGES
@<TRIPOS>ATOM
   1 C1          -1.7413    -1.1091     7.5218 C.3          1    LIG   0.0000
   2 C2          -1.8213    -2.4524     6.8150 C.3          1    LIG   0.0000
   3 C3          -0.9758    -2.4119     5.5533 C.ar         1    LIG   0.0000
   4 C4           0.3637    -2.7814     5.6107 C.ar         1    LIG   0.0000
   5 C5           1.1443    -2.7473     4.4599 C.ar         1    LIG   0.0000
   6 C6           0.5692    -2.3402     3.2605 C.ar         1    LIG   0.0000
   7 C7           1.3786    -2.3033     2.0583 C.2          1    LIG   0.0000
   8 N8           2.2796    -3.1842     1.6981 N.2          1    LIG   0.0000
   9 N9           2.8171    -2.8274     0.5514 N.pl3        1    LIG   0.0000
  10 C10          3.8171    -3.5354    -0.1268 C.ar         1    LIG   0.0000
  11 C11          3.5812    -4.0139    -1.4116 C.ar         1    LIG   0.0000
  12 C12          4.5742    -4.7179    -2.0850 C.ar         1    LIG   0.0000
  13 C13          5.8035    -4.9424    -1.4742 C.ar         1    LIG   0.0000
  14 C14          6.0397    -4.4637    -0.1891 C.ar         1    LIG   0.0000
  15 C15          5.0468    -3.7599     0.4841 C.ar         1    LIG   0.0000
  16 C16          5.3049    -3.2364     1.8879 C.3          1    LIG   0.0000
  17 C17          2.2601    -1.6667     0.1113 C.2          1    LIG   0.0000
  18 C18          1.3444    -1.3151     1.0537 C.2          1    LIG   0.0000
  19 C19          0.4916    -0.1416     1.0265 C.2          1    LIG   0.0000
  20 N20          1.0000     1.0000     1.0000 N.2          1    LIG   0.0000
  21 N21          2.3507     1.0000     1.0000 N.pl3        1    LIG   0.0000
  22 C22          3.1467     0.4712     1.9671 C.2          1    LIG   0.0000
  23 S23          2.6354    -0.3272     3.4248 S.2          1    LIG  -1.0000
  24 N24          4.3795     0.6848     1.5796 N.2          1    LIG   0.0000
  25 N25          4.3831     1.3148     0.4225 N.2          1    LIG   0.0000
  26 C26          3.1481     1.5258     0.0364 C.2          1    LIG   0.0000
  27 C27          2.7037     2.2227    -1.2377 C.3          1    LIG   0.0000
  28 C28          1.1850     2.2538    -1.2950 C.3          1    LIG   0.0000
  29 O29          0.7695     2.9054    -2.4863 O.3          1    LIG   0.0000
  30 C30         -0.6399     2.9881    -2.6379 C.3          1    LIG   0.0000
  31 C31         -0.7697    -1.9678     3.1942 C.ar         1    LIG   0.0000
  32 C32         -1.5428    -2.0049     4.3495 C.ar         1    LIG   0.0000
  33 H           -2.2978    -1.1358     8.3522 H            1    LIG   0.0000
  34 H           -0.7905    -0.9159     7.7638 H            1    LIG   0.0000
  35 H           -2.0830    -0.3920     6.9144 H            1    LIG   0.0000
  36 H           -1.4796    -3.1696     7.4224 H            1    LIG   0.0000
  37 H           -2.7722    -2.6456     6.5730 H            1    LIG   0.0000
  38 H            0.7656    -3.0715     6.4792 H            1    LIG   0.0000
  39 H            2.1079    -3.0124     4.4944 H            1    LIG   0.0000
  40 H            2.6977    -3.8517    -1.8511 H            1    LIG   0.0000
  41 H            4.4042    -5.0625    -3.0082 H            1    LIG   0.0000
  42 H            6.5176    -5.4479    -1.9585 H            1    LIG   0.0000
  43 H            6.9233    -4.6257     0.2502 H            1    LIG   0.0000
  44 H            6.2312    -3.4847     2.1712 H            1    LIG   0.0000
  45 H            5.2096    -2.2410     1.8952 H            1    LIG   0.0000
  46 H            4.6436    -3.6392     2.5207 H            1    LIG   0.0000
  47 H            2.4787    -1.1740    -0.7309 H            1    LIG   0.0000
  48 H           -0.5029    -0.2461     1.0289 H            1    LIG   0.0000
  49 H            3.0570     1.7256    -2.0302 H            1    LIG   0.0000
  50 H            3.0568     3.1582    -1.2465 H            1    LIG   0.0000
  51 H            0.8319     1.3183    -1.2862 H            1    LIG   0.0000
  52 H            0.8317     2.7509    -0.5025 H            1    LIG   0.0000
  53 H           -0.8561     3.4566    -3.4945 H            1    LIG   0.0000
  54 H           -1.0280     2.0666    -2.6549 H            1    LIG   0.0000
  55 H           -1.0282     3.4993    -1.8712 H            1    LIG   0.0000
  56 H           -1.1714    -1.6770     2.3259 H            1    LIG   0.0000
  57 H           -2.5062    -1.7390     4.3153 H            1    LIG   0.0000
@<TRIPOS>BOND
   1        1        2 1
   2        2        3 1
   3        3        4 ar
   4        4        5 ar
   5        5        6 ar
   6        6        7 1
   7        7        8 2
   8        8        9 1
   9        9       10 1
  10       10       11 ar
  11       11       12 ar
  12       12       13 ar
  13       13       14 ar
  14       14       15 ar
  15       15       10 ar
  16       15       16 1
  17        9       17 1
  18       17       18 2
  19       18        7 1
  20       18       19 1
  21       19       20 2
  22       20       21 1
  23       21       22 1
  24       22       23 1
  25       22       24 2
  26       24       25 1
  27       25       26 2
  28       26       21 1
  29       26       27 1
  30       27       28 1
  31       28       29 1
  32       29       30 1
  33        6       31 ar
  34       31       32 ar
  35       32        3 ar
  36        1       33 1
  37        1       34 1
  38        1       35 1
  39        2       36 1
  40        2       37 1
  41        4       38 1
  42        5       39 1
  43       11       40 1
  44       12       41 1
  45       13       42 1
  46       14       43 1
  47       16       44 1
  48       16       45 1
  49       16       46 1
  50       17       47 1
  51       19       48 1
  52       27       49 1
  53       27       50 1
  54       28       51 1
  55       28       52 1
  56       30       53 1
  57       30       54 1
  58       30       55 1
  59       31       56 1
  60       32       57 1

@<TRIPOS>MOLECULE

  57   60
SMALL
USER_CHARGES
@<TRIPOS>ATOM
   1 C1          -1.1659    -3.3629     7.8366 C.3          1    LIG   0.0000
   2 C2          -1.8245    -2.4526     6.8129 C.3          1    LIG   0.0000
   3 C3          -0.9763    -2.4102     5.5530 C.ar         1    LIG   0.0000
   4 C4          -0.3778    -3.5759     5.0871 C.ar         1    LIG   0.0000
   5 C5           0.3999    -3.5453     3.9342 C.ar         1    LIG   0.0000
   6 C6           0.5692    -2.3402     3.2605 C.ar         1    LIG   0.0000
   7 C7           1.3786    -2.3033     2.0583 C.2          1    LIG   0.0000
   8 N8           2.2796    -3.1842     1.6981 N.2          1    LIG   0.0000
   9 N9           2.8171    -2.8274     0.5514 N.pl3        1    LIG   0.0000
  10 C10          3.8171    -3.5354    -0.1268 C.ar         1    LIG   0.0000
  11 C11          5.0420    -2.9303    -0.3889 C.ar         1    LIG   0.0000
  12 C12          6.0351    -3.6333    -1.0632 C.ar         1    LIG   0.0000
  13 C13          5.8038    -4.9418    -1.4745 C.ar         1    LIG   0.0000
  14 C14          4.5787    -5.5473    -1.2122 C.ar         1    LIG   0.0000
  15 C15          3.5857    -4.8443    -0.5380 C.ar         1    LIG   0.0000
  16 C16          2.2474    -5.5059    -0.2510 C.3          1    LIG   0.0000
  17 C17          2.2601    -1.6667     0.1113 C.2          1    LIG   0.0000
  18 C18          1.3444    -1.3151     1.0537 C.2          1    LIG   0.0000
  19 C19          0.4916    -0.1416     1.0265 C.2          1    LIG   0.0000
  20 N20          1.0000     1.0000     1.0000 N.2          1    LIG   0.0000
  21 N21          2.3507     1.0000     1.0000 N.pl3        1    LIG   0.0000
  22 C22          3.1467     0.4712     1.9671 C.2          1    LIG   0.0000
  23 S23          2.6354    -0.3272     3.4248 S.2          1    LIG  -1.0000
  24 N24          4.3795     0.6848     1.5796 N.2          1    LIG   0.0000
  25 N25          4.3831     1.3148     0.4225 N.2          1    LIG   0.0000
  26 C26          3.1481     1.5258     0.0364 C.2          1    LIG   0.0000
  27 C27          2.7037     2.2227    -1.2377 C.3          1    LIG   0.0000
  28 C28          1.2678     1.8359    -1.5524 C.3          1    LIG   0.0000
  29 O29          1.0670     1.8644    -2.9579 O.3          1    LIG   0.0000
  30 C30          1.7388     0.8278    -3.6584 C.3          1    LIG   0.0000
  31 C31         -0.0250    -1.1691     3.7201 C.ar         1    LIG   0.0000
  32 C32         -0.8008    -1.2087     4.8735 C.ar         1    LIG   0.0000
  33 H           -1.7241    -3.3907     8.6658 H            1    LIG   0.0000
  34 H           -1.0839    -4.2851     7.4588 H            1    LIG   0.0000
  35 H           -0.2563    -3.0116     8.0588 H            1    LIG   0.0000
  36 H           -2.7340    -2.8039     6.5907 H            1    LIG   0.0000
  37 H           -1.9064    -1.5303     7.1907 H            1    LIG   0.0000
  38 H           -0.5065    -4.4359     5.5808 H            1    LIG   0.0000
  39 H            0.8324    -4.3802     3.5936 H            1    LIG   0.0000
  40 H            5.2086    -1.9899    -0.0925 H            1    LIG   0.0000
  41 H            6.9152    -3.1980    -1.2523 H            1    LIG   0.0000
  42 H            6.5179    -5.4474    -1.9586 H            1    LIG   0.0000
  43 H            4.4121    -6.4878    -1.5084 H            1    LIG   0.0000
  44 H            2.2521    -6.4382    -0.6126 H            1    LIG   0.0000
  45 H            2.0936    -5.5322     0.7367 H            1    LIG   0.0000
  46 H            1.5162    -4.9824    -0.6884 H            1    LIG   0.0000
  47 H            2.4787    -1.1740    -0.7309 H            1    LIG   0.0000
  48 H           -0.5029    -0.2461     1.0289 H            1    LIG   0.0000
  49 H            3.2968     1.9455    -1.9936 H            1    LIG   0.0000
  50 H            2.7625     3.2132    -1.1138 H            1    LIG   0.0000
  51 H            1.0878     0.9143    -1.2086 H            1    LIG   0.0000
  52 H            0.6444     2.4831    -1.1135 H            1    LIG   0.0000
  53 H            1.5520     0.9116    -4.6372 H            1    LIG   0.0000
  54 H            2.7233     0.9017    -3.4993 H            1    LIG   0.0000
  55 H            1.4141    -0.0598    -3.3318 H            1    LIG   0.0000
  56 H            0.1043    -0.3089     3.2268 H            1    LIG   0.0000
  57 H           -1.2326    -0.3737     5.2146 H            1    LIG   0.0000
@<TRIPOS>BOND
   1        1        2 1
   2        2        3 1
   3        3        4 ar
   4        4        5 ar
   5        5        6 ar
   6        6        7 1
   7        7        8 2
   8        8        9 1
   9        9       10 1
  10       10       11 ar
  11       11       12 ar
  12       12       13 ar
  13       13       14 ar
  14       14       15 ar
  15       15       10 ar
  16       15       16 1
  17        9       17 1
  18       17       18 2
  19       18        7 1
  20       18       19 1
  21       19       20 2
  22       20       21 1
  23       21       22 1
  24       22       23 1
  25       22       24 2
  26       24       25 1
  27       25       26 2
  28       26       21 1
  29       26       27 1
  30       27       28 1
  31       28       29 1
  32       29       30 1
  33        6       31 ar
  34       31       32 ar
  35       32        3 ar
  36        1       33 1
  37        1       34 1
  38        1       35 1
  39        2       36 1
  40        2       37 1
  41        4       38 1
  42        5       39 1
  43       11       40 1
  44       12       41 1
  45       13       42 1
  46       14       43 1
  47       16       44 1
  48       16       45 1
  49       16       46 1
  50       17       47 1
  51       19       48 1
  52       27       49 1
  53       27       50 1
  54       28       51 1
  55       28       52 1
  56       30       53 1
  57       30       54 1
  58       30       55 1
  59       31       56 1
  60       32       57 1

@<TRIPOS>MOLECULE

  57   60
SMALL
USER_CHARGES
@<TRIPOS>ATOM
   1 C1          -1.1659    -3.3629     7.8366 C.3          1    LIG   0.0000
   2 C2          -1.8245    -2.4526     6.8129 C.3          1    LIG   0.0000
   3 C3          -0.9763    -2.4102     5.5530 C.ar         1    LIG   0.0000
   4 C4          -0.3778    -3.5759     5.0871 C.ar         1    LIG   0.0000
   5 C5           0.3999    -3.5453     3.9342 C.ar         1    LIG   0.0000
   6 C6           0.5692    -2.3402     3.2605 C.ar         1    LIG   0.0000
   7 C7           1.3786    -2.3033     2.0583 C.2          1    LIG   0.0000
   8 N8           2.2796    -3.1842     1.6981 N.2          1    LIG   0.0000
   9 N9           2.8171    -2.8274     0.5514 N.pl3        1    LIG   0.0000
  10 C10          3.8171    -3.5354    -0.1268 C.ar         1    LIG   0.0000
  11 C11          3.5812    -4.0139    -1.4116 C.ar         1    LIG   0.0000
  12 C12          4.5742    -4.7179    -2.0850 C.ar         1    LIG   0.0000
  13 C13          5.8035    -4.9424    -1.4742 C.ar         1    LIG   0.0000
  14 C14          6.0397    -4.4637    -0.1891 C.ar         1    LIG   0.0000
  15 C15          5.0468    -3.7599     0.4841 C.ar         1    LIG   0.0000
  16 C16          5.3049    -3.2364     1.8879 C.3          1    LIG   0.0000
  17 C17          2.2601    -1.6667     0.1113 C.2          1    LIG   0.0000
  18 C18          1.3444    -1.3151     1.0537 C.2          1    LIG   0.0000
  19 C19          0.4916    -0.1416     1.0265 C.2          1    LIG   0.0000
  20 N20          1.0000     1.0000     1.0000 N.2          1    LIG   0.0000
  21 N21          2.3507     1.0000     1.0000 N.pl3        1    LIG   0.0000
  22 C22          3.1467     0.4712     1.9671 C.2          1    LIG   0.0000
  23 S23          2.6354    -0.3272     3.4248 S.2          1    LIG  -1.0000
  24 N24          4.3795     0.6848     1.5796 N.2          1    LIG   0.0000
  25 N25          4.3831     1.3148     0.4225 N.2          1    LIG   0.0000
  26 C26          3.1481     1.5258     0.0364 C.2          1    LIG   0.0000
  27 C27          2.7037     2.2227    -1.2377 C.3          1    LIG   0.0000
  28 C28          1.2678     1.8359    -1.5524 C.3          1    LIG   0.0000
  29 O29          1.0670     1.8644    -2.9579 O.3          1    LIG   0.0000
  30 C30          1.7388     0.8278    -3.6584 C.3          1    LIG   0.0000
  31 C31         -0.0250    -1.1691     3.7201 C.ar         1    LIG   0.0000
  32 C32         -0.8008    -1.2087     4.8735 C.ar         1    LIG   0.0000
  33 H           -1.7241    -3.3907     8.6658 H            1    LIG   0.0000
  34 H           -1.0839    -4.2851     7.4588 H            1    LIG   0.0000
  35 H           -0.2563    -3.0116     8.0588 H            1    LIG   0.0000
  36 H           -2.7340    -2.8039     6.5907 H            1    LIG   0.0000
  37 H           -1.9064    -1.5303     7.1907 H            1    LIG   0.0000
  38 H           -0.5065    -4.4359     5.5808 H            1    LIG   0.0000
  39 H            0.8324    -4.3802     3.5936 H            1    LIG   0.0000
  40 H            2.6977    -3.8517    -1.8511 H            1    LIG   0.0000
  41 H            4.4042    -5.0625    -3.0082 H            1    LIG   0.0000
  42 H            6.5176    -5.4479    -1.9585 H            1    LIG   0.0000
  43 H            6.9233    -4.6257     0.2502 H            1    LIG   0.0000
  44 H            6.2312    -3.4847     2.1712 H            1    LIG   0.0000
  45 H            5.2096    -2.2410     1.8952 H            1    LIG   0.0000
  46 H            4.6436    -3.6392     2.5207 H            1    LIG   0.0000
  47 H            2.4787    -1.1740    -0.7309 H            1    LIG   0.0000
  48 H           -0.5029    -0.2461     1.0289 H            1    LIG   0.0000
  49 H            3.2968     1.9455    -1.9936 H            1    LIG   0.0000
  50 H            2.7625     3.2132    -1.1138 H            1    LIG   0.0000
  51 H            1.0878     0.9143    -1.2086 H            1    LIG   0.0000
  52 H            0.6444     2.4831    -1.1135 H            1    LIG   0.0000
  53 H            1.5520     0.9116    -4.6372 H            1    LIG   0.0000
  54 H            2.7233     0.9017    -3.4993 H            1    LIG   0.0000
  55 H            1.4141    -0.0598    -3.3318 H            1    LIG   0.0000
  56 H            0.1043    -0.3089     3.2268 H            1    LIG   0.0000
  57 H           -1.2326    -0.3737     5.2146 H            1    LIG   0.0000
@<TRIPOS>BOND
   1        1        2 1
   2        2        3 1
   3        3        4 ar
   4        4        5 ar
   5        5        6 ar
   6        6        7 1
   7        7        8 2
   8        8        9 1
   9        9       10 1
  10       10       11 ar
  11       11       12 ar
  12       12       13 ar
  13       13       14 ar
  14       14       15 ar
  15       15       10 ar
  16       15       16 1
  17        9       17 1
  18       17       18 2
  19       18        7 1
  20       18       19 1
  21       19       20 2
  22       20       21 1
  23       21       22 1
  24       22       23 1
  25       22       24 2
  26       24       25 1
  27       25       26 2
  28       26       21 1
  29       26       27 1
  30       27       28 1
  31       28       29 1
  32       29       30 1
  33        6       31 ar
  34       31       32 ar
  35       32        3 ar
  36        1       33 1
  37        1       34 1
  38        1       35 1
  39        2       36 1
  40        2       37 1
  41        4       38 1
  42        5       39 1
  43       11       40 1
  44       12       41 1
  45       13       42 1
  46       14       43 1
  47       16       44 1
  48       16       45 1
  49       16       46 1
  50       17       47 1
  51       19       48 1
  52       27       49 1
  53       27       50 1
  54       28       51 1
  55       28       52 1
  56       30       53 1
  57       30       54 1
  58       30       55 1
  59       31       56 1
  60       32       57 1

@<TRIPOS>MOLECULE

  57   60
SMALL
USER_CHARGES
@<TRIPOS>ATOM
   1 C1          -2.4653    -3.8227     6.9496 C.3          1    LIG   0.0000
   2 C2          -1.8213    -2.4524     6.8150 C.3          1    LIG   0.0000
   3 C3          -0.9758    -2.4119     5.5533 C.ar         1    LIG   0.0000
   4 C4           0.3637    -2.7814     5.6107 C.ar         1    LIG   0.0000
   5 C5           1.1443    -2.7473     4.4599 C.ar         1    LIG   0.0000
   6 C6           0.5692    -2.3402     3.2605 C.ar         1    LIG   0.0000
   7 C7           1.3786    -2.3033     2.0583 C.2          1    LIG   0.0000
   8 N8           2.2796    -3.1842     1.6981 N.2          1    LIG   0.0000
   9 N9           2.8171    -2.8274     0.5514 N.pl3        1    LIG   0.0000
  10 C10          3.8171    -3.5354    -0.1268 C.ar         1    LIG   0.0000
  11 C11          4.3094    -3.0571    -1.3368 C.ar         1    LIG   0.0000
  12 C12          5.3022    -3.7607    -2.0109 C.ar         1    LIG   0.0000
  13 C13          5.8035    -4.9422    -1.4745 C.ar         1    LIG   0.0000
  14 C14          5.3114    -5.4206    -0.2641 C.ar         1    LIG   0.0000
  15 C15          4.3187    -4.7171     0.4098 C.ar         1    LIG   0.0000
  16 C16          3.7812    -5.2395     1.7325 C.3          1    LIG   0.0000
  17 C17          2.2601    -1.6667     0.1113 C.2          1    LIG   0.0000
  18 C18          1.3444    -1.3151     1.0537 C.2          1    LIG   0.0000
  19 C19          0.4916    -0.1416     1.0265 C.2          1    LIG   0.0000
  20 N20          1.0000     1.0000     1.0000 N.2          1    LIG   0.0000
  21 N21          2.3507     1.0000     1.0000 N.pl3        1    LIG   0.0000
  22 C22          3.1467     0.4712     1.9671 C.2          1    LIG   0.0000
  23 S23          2.6354    -0.3272     3.4248 S.2          1    LIG  -1.0000
  24 N24          4.3795     0.6848     1.5796 N.2          1    LIG   0.0000
  25 N25          4.3831     1.3148     0.4225 N.2          1    LIG   0.0000
  26 C26          3.1481     1.5258     0.0364 C.2          1    LIG   0.0000
  27 C27          2.7037     2.2227    -1.2377 C.3          1    LIG   0.0000
  28 C28          1.2678     1.8359    -1.5524 C.3          1    LIG   0.0000
  29 O29          1.0670     1.8644    -2.9579 O.3          1    LIG   0.0000
  30 C30          1.7388     0.8278    -3.6584 C.3          1    LIG   0.0000
  31 C31         -0.7697    -1.9678     3.1942 C.ar         1    LIG   0.0000
  32 C32         -1.5428    -2.0049     4.3495 C.ar         1    LIG   0.0000
  33 H           -3.0218    -3.8493     7.7800 H            1    LIG   0.0000
  34 H           -3.0451    -3.9981     6.1540 H            1    LIG   0.0000
  35 H           -1.7525    -4.5221     7.0034 H            1    LIG   0.0000
  36 H           -2.5340    -1.7530     6.7612 H            1    LIG   0.0000
  37 H           -1.2415    -2.2770     7.6106 H            1    LIG   0.0000
  38 H            0.7656    -3.0715     6.4792 H            1    LIG   0.0000
  39 H            2.1079    -3.0124     4.4944 H            1    LIG   0.0000
  40 H            3.9495    -2.2073    -1.7220 H            1    LIG   0.0000
  41 H            5.6554    -3.4172    -2.8811 H            1    LIG   0.0000
  42 H            6.5177    -5.4476    -1.9587 H            1    LIG   0.0000
  43 H            5.6714    -6.2703     0.1213 H            1    LIG   0.0000
  44 H            4.2483    -6.0915     1.9689 H            1    LIG   0.0000
  45 H            3.9426    -4.5610     2.4492 H            1    LIG   0.0000
  46 H            2.7993    -5.4095     1.6495 H            1    LIG   0.0000
  47 H            2.4787    -1.1740    -0.7309 H            1    LIG   0.0000
  48 H           -0.5029    -0.2461     1.0289 H            1    LIG   0.0000
  49 H            3.2968     1.9455    -1.9936 H            1    LIG   0.0000
  50 H            2.7625     3.2132    -1.1138 H            1    LIG   0.0000
  51 H            1.0878     0.9143    -1.2086 H            1    LIG   0.0000
  52 H            0.6444     2.4831    -1.1135 H            1    LIG   0.0000
  53 H            1.5520     0.9116    -4.6372 H            1    LIG   0.0000
  54 H            2.7233     0.9017    -3.4993 H            1    LIG   0.0000
  55 H            1.4141    -0.0598    -3.3318 H            1    LIG   0.0000
  56 H           -1.1714    -1.6770     2.3259 H            1    LIG   0.0000
  57 H           -2.5062    -1.7390     4.3153 H            1    LIG   0.0000
@<TRIPOS>BOND
   1        1        2 1
   2        2        3 1
   3        3        4 ar
   4        4        5 ar
   5        5        6 ar
   6        6        7 1
   7        7        8 2
   8        8        9 1
   9        9       10 1
  10       10       11 ar
  11       11       12 ar
  12       12       13 ar
  13       13       14 ar
  14       14       15 ar
  15       15       10 ar
  16       15       16 1
  17        9       17 1
  18       17       18 2
  19       18        7 1
  20       18       19 1
  21       19       20 2
  22       20       21 1
  23       21       22 1
  24       22       23 1
  25       22       24 2
  26       24       25 1
  27       25       26 2
  28       26       21 1
  29       26       27 1
  30       27       28 1
  31       28       29 1
  32       29       30 1
  33        6       31 ar
  34       31       32 ar
  35       32        3 ar
  36        1       33 1
  37        1       34 1
  38        1       35 1
  39        2       36 1
  40        2       37 1
  41        4       38 1
  42        5       39 1
  43       11       40 1
  44       12       41 1
  45       13       42 1
  46       14       43 1
  47       16       44 1
  48       16       45 1
  49       16       46 1
  50       17       47 1
  51       19       48 1
  52       27       49 1
  53       27       50 1
  54       28       51 1
  55       28       52 1
  56       30       53 1
  57       30       54 1
  58       30       55 1
  59       31       56 1
  60       32       57 1

@<TRIPOS>MOLECULE

  57   60
SMALL
USER_CHARGES
@<TRIPOS>ATOM
   1 C1          -2.4653    -3.8227     6.9496 C.3          1    LIG   0.0000
   2 C2          -1.8213    -2.4524     6.8150 C.3          1    LIG   0.0000
   3 C3          -0.9758    -2.4119     5.5533 C.ar         1    LIG   0.0000
   4 C4           0.3637    -2.7814     5.6107 C.ar         1    LIG   0.0000
   5 C5           1.1443    -2.7473     4.4599 C.ar         1    LIG   0.0000
   6 C6           0.5692    -2.3402     3.2605 C.ar         1    LIG   0.0000
   7 C7           1.3786    -2.3033     2.0583 C.2          1    LIG   0.0000
   8 N8           2.2796    -3.1842     1.6981 N.2          1    LIG   0.0000
   9 N9           2.8171    -2.8274     0.5514 N.pl3        1    LIG   0.0000
  10 C10          3.8171    -3.5354    -0.1268 C.ar         1    LIG   0.0000
  11 C11          5.0464    -3.7604     0.4842 C.ar         1    LIG   0.0000
  12 C12          6.0400    -4.4630    -0.1897 C.ar         1    LIG   0.0000
  13 C13          5.8040    -4.9418    -1.4742 C.ar         1    LIG   0.0000
  14 C14          4.5743    -4.7170    -2.0854 C.ar         1    LIG   0.0000
  15 C15          3.5809    -4.0144    -1.4116 C.ar         1    LIG   0.0000
  16 C16          2.2372    -3.7693    -2.0791 C.3          1    LIG   0.0000
  17 C17          2.2601    -1.6667     0.1113 C.2          1    LIG   0.0000
  18 C18          1.3444    -1.3151     1.0537 C.2          1    LIG   0.0000
  19 C19          0.4916    -0.1416     1.0265 C.2          1    LIG   0.0000
  20 N20          1.0000     1.0000     1.0000 N.2          1    LIG   0.0000
  21 N21          2.3507     1.0000     1.0000 N.pl3        1    LIG   0.0000
  22 C22          3.1467     0.4712     1.9671 C.2          1    LIG   0.0000
  23 S23          2.6354    -0.3272     3.4248 S.2          1    LIG  -1.0000
  24 N24          4.3795     0.6848     1.5796 N.2          1    LIG   0.0000
  25 N25          4.3831     1.3148     0.4225 N.2          1    LIG   0.0000
  26 C26          3.1481     1.5258     0.0364 C.2          1    LIG   0.0000
  27 C27          2.7037     2.2227    -1.2377 C.3          1    LIG   0.0000
  28 C28          1.2678     1.8359    -1.5524 C.3          1    LIG   0.0000
  29 O29          1.0670     1.8644    -2.9579 O.3          1    LIG   0.0000
  30 C30          1.7388     0.8278    -3.6584 C.3          1    LIG   0.0000
  31 C31         -0.7697    -1.9678     3.1942 C.ar         1    LIG   0.0000
  32 C32         -1.5428    -2.0049     4.3495 C.ar         1    LIG   0.0000
  33 H           -3.0218    -3.8493     7.7800 H            1    LIG   0.0000
  34 H           -3.0451    -3.9981     6.1540 H            1    LIG   0.0000
  35 H           -1.7525    -4.5221     7.0034 H            1    LIG   0.0000
  36 H           -2.5340    -1.7530     6.7612 H            1    LIG   0.0000
  37 H           -1.2415    -2.2770     7.6106 H            1    LIG   0.0000
  38 H            0.7656    -3.0715     6.4792 H            1    LIG   0.0000
  39 H            2.1079    -3.0124     4.4944 H            1    LIG   0.0000
  40 H            5.2158    -3.4169     1.4080 H            1    LIG   0.0000
  41 H            6.9240    -4.6239     0.2493 H            1    LIG   0.0000
  42 H            6.5181    -5.4474    -1.9584 H            1    LIG   0.0000
  43 H            4.4048    -5.0607    -3.0091 H            1    LIG   0.0000
  44 H            2.2388    -4.1781    -2.9917 H            1    LIG   0.0000
  45 H            1.5115    -4.1834    -1.5297 H            1    LIG   0.0000
  46 H            2.0773    -2.7850    -2.1550 H            1    LIG   0.0000
  47 H            2.4787    -1.1740    -0.7309 H            1    LIG   0.0000
  48 H           -0.5029    -0.2461     1.0289 H            1    LIG   0.0000
  49 H            3.2968     1.9455    -1.9936 H            1    LIG   0.0000
  50 H            2.7625     3.2132    -1.1138 H            1    LIG   0.0000
  51 H            1.0878     0.9143    -1.2086 H            1    LIG   0.0000
  52 H            0.6444     2.4831    -1.1135 H            1    LIG   0.0000
  53 H            1.5520     0.9116    -4.6372 H            1    LIG   0.0000
  54 H            2.7233     0.9017    -3.4993 H            1    LIG   0.0000
  55 H            1.4141    -0.0598    -3.3318 H            1    LIG   0.0000
  56 H           -1.1714    -1.6770     2.3259 H            1    LIG   0.0000
  57 H           -2.5062    -1.7390     4.3153 H            1    LIG   0.0000
@<TRIPOS>BOND
   1        1        2 1
   2        2        3 1
   3        3        4 ar
   4        4        5 ar
   5        5        6 ar
   6        6        7 1
   7        7        8 2
   8        8        9 1
   9        9       10 1
  10       10       11 ar
  11       11       12 ar
  12       12       13 ar
  13       13       14 ar
  14       14       15 ar
  15       15       10 ar
  16       15       16 1
  17        9       17 1
  18       17       18 2
  19       18        7 1
  20       18       19 1
  21       19       20 2
  22       20       21 1
  23       21       22 1
  24       22       23 1
  25       22       24 2
  26       24       25 1
  27       25       26 2
  28       26       21 1
  29       26       27 1
  30       27       28 1
  31       28       29 1
  32       29       30 1
  33        6       31 ar
  34       31       32 ar
  35       32        3 ar
  36        1       33 1
  37        1       34 1
  38        1       35 1
  39        2       36 1
  40        2       37 1
  41        4       38 1
  42        5       39 1
  43       11       40 1
  44       12       41 1
  45       13       42 1
  46       14       43 1
  47       16       44 1
  48       16       45 1
  49       16       46 1
  50       17       47 1
  51       19       48 1
  52       27       49 1
  53       27       50 1
  54       28       51 1
  55       28       52 1
  56       30       53 1
  57       30       54 1
  58       30       55 1
  59       31       56 1
  60       32       57 1

@<TRIPOS>MOLECULE

  57   60
SMALL
USER_CHARGES
@<TRIPOS>ATOM
   1 C1          -1.8496    -3.8708     7.3606 C.3          1    LIG   0.0000
   2 C2          -1.8213    -2.4524     6.8150 C.3          1    LIG   0.0000
   3 C3          -0.9758    -2.4119     5.5533 C.ar         1    LIG   0.0000
   4 C4           0.3637    -2.7814     5.6107 C.ar         1    LIG   0.0000
   5 C5           1.1443    -2.7473     4.4599 C.ar         1    LIG   0.0000
   6 C6           0.5692    -2.3402     3.2605 C.ar         1    LIG   0.0000
   7 C7           1.3786    -2.3033     2.0583 C.2          1    LIG   0.0000
   8 N8           2.2796    -3.1842     1.6981 N.2          1    LIG   0.0000
   9 N9           2.8171    -2.8274     0.5514 N.pl3        1    LIG   0.0000
  10 C10          3.8171    -3.5354    -0.1268 C.ar         1    LIG   0.0000
  11 C11          3.5856    -4.8439    -0.5385 C.ar         1    LIG   0.0000
  12 C12          4.5792    -5.5475    -1.2115 C.ar         1    LIG   0.0000
  13 C13          5.8038    -4.9423    -1.4739 C.ar         1    LIG   0.0000
  14 C14          6.0354    -3.6334    -1.0624 C.ar         1    LIG   0.0000
  15 C15          5.0419    -2.9300    -0.3894 C.ar         1    LIG   0.0000
  16 C16          5.2947    -1.4997     0.0598 C.3          1    LIG   0.0000
  17 C17          2.2601    -1.6667     0.1113 C.2          1    LIG   0.0000
  18 C18          1.3444    -1.3151     1.0537 C.2          1    LIG   0.0000
  19 C19          0.4916    -0.1416     1.0265 C.2          1    LIG   0.0000
  20 N20          1.0000     1.0000     1.0000 N.2          1    LIG   0.0000
  21 N21          2.3507     1.0000     1.0000 N.pl3        1    LIG   0.0000
  22 C22          3.1467     0.4712     1.9671 C.2          1    LIG   0.0000
  23 S23          2.6354    -0.3272     3.4248 S.2          1    LIG  -1.0000
  24 N24          4.3795     0.6848     1.5796 N.2          1    LIG   0.0000
  25 N25          4.3831     1.3148     0.4225 N.2          1    LIG   0.0000
  26 C26          3.1481     1.5258     0.0364 C.2          1    LIG   0.0000
  27 C27          2.7037     2.2227    -1.2377 C.3          1    LIG   0.0000
  28 C28          1.2678     1.8359    -1.5524 C.3          1    LIG   0.0000
  29 O29          1.0670     1.8644    -2.9579 O.3          1    LIG   0.0000
  30 C30          1.7388     0.8278    -3.6584 C.3          1    LIG   0.0000
  31 C31         -0.7697    -1.9678     3.1942 C.ar         1    LIG   0.0000
  32 C32         -1.5428    -2.0049     4.3495 C.ar         1    LIG   0.0000
  33 H           -2.4061    -3.8974     8.1911 H            1    LIG   0.0000
  34 H           -2.2435    -4.4837     6.6756 H            1    LIG   0.0000
  35 H           -0.9179    -4.1644     7.5742 H            1    LIG   0.0000
  36 H           -2.7531    -2.1588     6.6014 H            1    LIG   0.0000
  37 H           -1.4275    -1.8395     7.5000 H            1    LIG   0.0000
  38 H            0.7656    -3.0715     6.4792 H            1    LIG   0.0000
  39 H            2.1079    -3.0124     4.4944 H            1    LIG   0.0000
  40 H            2.7049    -5.2788    -0.3506 H            1    LIG   0.0000
  41 H            4.4130    -6.4884    -1.5066 H            1    LIG   0.0000
  42 H            6.5178    -5.4479    -1.9582 H            1    LIG   0.0000
  43 H            6.9160    -3.1985    -1.2505 H            1    LIG   0.0000
  44 H            6.2180    -1.2245    -0.2080 H            1    LIG   0.0000
  45 H            4.6275    -0.8922    -0.3712 H            1    LIG   0.0000
  46 H            5.2048    -1.4418     1.0541 H            1    LIG   0.0000
  47 H            2.4787    -1.1740    -0.7309 H            1    LIG   0.0000
  48 H           -0.5029    -0.2461     1.0289 H            1    LIG   0.0000
  49 H            3.2968     1.9455    -1.9936 H            1    LIG   0.0000
  50 H            2.7625     3.2132    -1.1138 H            1    LIG   0.0000
  51 H            1.0878     0.9143    -1.2086 H            1    LIG   0.0000
  52 H            0.6444     2.4831    -1.1135 H            1    LIG   0.0000
  53 H            1.5520     0.9116    -4.6372 H            1    LIG   0.0000
  54 H            2.7233     0.9017    -3.4993 H            1    LIG   0.0000
  55 H            1.4141    -0.0598    -3.3318 H            1    LIG   0.0000
  56 H           -1.1714    -1.6770     2.3259 H            1    LIG   0.0000
  57 H           -2.5062    -1.7390     4.3153 H            1    LIG   0.0000
@<TRIPOS>BOND
   1        1        2 1
   2        2        3 1
   3        3        4 ar
   4        4        5 ar
   5        5        6 ar
   6        6        7 1
   7        7        8 2
   8        8        9 1
   9        9       10 1
  10       10       11 ar
  11       11       12 ar
  12       12       13 ar
  13       13       14 ar
  14       14       15 ar
  15       15       10 ar
  16       15       16 1
  17        9       17 1
  18       17       18 2
  19       18        7 1
  20       18       19 1
  21       19       20 2
  22       20       21 1
  23       21       22 1
  24       22       23 1
  25       22       24 2
  26       24       25 1
  27       25       26 2
  28       26       21 1
  29       26       27 1
  30       27       28 1
  31       28       29 1
  32       29       30 1
  33        6       31 ar
  34       31       32 ar
  35       32        3 ar
  36        1       33 1
  37        1       34 1
  38        1       35 1
  39        2       36 1
  40        2       37 1
  41        4       38 1
  42        5       39 1
  43       11       40 1
  44       12       41 1
  45       13       42 1
  46       14       43 1
  47       16       44 1
  48       16       45 1
  49       16       46 1
  50       17       47 1
  51       19       48 1
  52       27       49 1
  53       27       50 1
  54       28       51 1
  55       28       52 1
  56       30       53 1
  57       30       54 1
  58       30       55 1
  59       31       56 1
  60       32       57 1

@<TRIPOS>MOLECULE

  57   60
SMALL
USER_CHARGES
@<TRIPOS>ATOM
   1 C1          -1.1605    -3.3607     7.8393 C.3          1    LIG   0.0000
   2 C2          -1.8205    -2.4515     6.8155 C.3          1    LIG   0.0000
   3 C3          -0.9753    -2.4123     5.5536 C.ar         1    LIG   0.0000
   4 C4           0.4109    -2.3675     5.6552 C.ar         1    LIG   0.0000
   5 C5           1.1917    -2.3317     4.5045 C.ar         1    LIG   0.0000
   6 C6           0.5692    -2.3402     3.2605 C.ar         1    LIG   0.0000
   7 C7           1.3786    -2.3033     2.0583 C.2          1    LIG   0.0000
   8 N8           2.2796    -3.1842     1.6981 N.2          1    LIG   0.0000
   9 N9           2.8171    -2.8274     0.5514 N.pl3        1    LIG   0.0000
  10 C10          3.8171    -3.5354    -0.1268 C.ar         1    LIG   0.0000
  11 C11          4.3094    -3.0571    -1.3368 C.ar         1    LIG   0.0000
  12 C12          5.3022    -3.7607    -2.0109 C.ar         1    LIG   0.0000
  13 C13          5.8035    -4.9422    -1.4745 C.ar         1    LIG   0.0000
  14 C14          5.3114    -5.4206    -0.2641 C.ar         1    LIG   0.0000
  15 C15          4.3187    -4.7171     0.4098 C.ar         1    LIG   0.0000
  16 C16          3.7812    -5.2395     1.7325 C.3          1    LIG   0.0000
  17 C17          2.2601    -1.6667     0.1113 C.2          1    LIG   0.0000
  18 C18          1.3444    -1.3151     1.0537 C.2          1    LIG   0.0000
  19 C19          0.4916    -0.1416     1.0265 C.2          1    LIG   0.0000
  20 N20          1.0000     1.0000     1.0000 N.2          1    LIG   0.0000
  21 N21          2.3507     1.0000     1.0000 N.pl3        1    LIG   0.0000
  22 C22          3.1467     0.4712     1.9671 C.2          1    LIG   0.0000
  23 S23          2.6354    -0.3272     3.4248 S.2          1    LIG  -1.0000
  24 N24          4.3795     0.6848     1.5796 N.2          1    LIG   0.0000
  25 N25          4.3831     1.3148     0.4225 N.2          1    LIG   0.0000
  26 C26          3.1481     1.5258     0.0364 C.2          1    LIG   0.0000
  27 C27          2.7037     2.2227    -1.2377 C.3          1    LIG   0.0000
  28 C28          1.2678     1.8359    -1.5524 C.3          1    LIG   0.0000
  29 O29          0.6290     2.9038    -2.2366 O.3          1    LIG   0.0000
  30 C30          0.3834     4.0439    -1.4266 C.3          1    LIG   0.0000
  31 C31         -0.8170    -2.3838     3.1496 C.ar         1    LIG   0.0000
  32 C32         -1.5898    -2.4193     4.3052 C.ar         1    LIG   0.0000
  33 H           -1.7168    -3.3866     8.6699 H            1    LIG   0.0000
  34 H           -1.0805    -4.2837     7.4629 H            1    LIG   0.0000
  35 H           -0.2501    -3.0101     8.0587 H            1    LIG   0.0000
  36 H           -2.7310    -2.8022     6.5962 H            1    LIG   0.0000
  37 H           -1.9006    -1.5285     7.1920 H            1    LIG   0.0000
  38 H            0.8464    -2.3611     6.5553 H            1    LIG   0.0000
  39 H            2.1890    -2.3002     4.5708 H            1    LIG   0.0000
  40 H            3.9495    -2.2073    -1.7220 H            1    LIG   0.0000
  41 H            5.6554    -3.4172    -2.8811 H            1    LIG   0.0000
  42 H            6.5177    -5.4476    -1.9587 H            1    LIG   0.0000
  43 H            5.6714    -6.2703     0.1213 H            1    LIG   0.0000
  44 H            4.2483    -6.0915     1.9689 H            1    LIG   0.0000
  45 H            3.9426    -4.5610     2.4492 H            1    LIG   0.0000
  46 H            2.7993    -5.4095     1.6495 H            1    LIG   0.0000
  47 H            2.4787    -1.1740    -0.7309 H            1    LIG   0.0000
  48 H           -0.5029    -0.2461     1.0289 H            1    LIG   0.0000
  49 H            3.2968     1.9455    -1.9936 H            1    LIG   0.0000
  50 H            2.7625     3.2132    -1.1138 H            1    LIG   0.0000
  51 H            1.2613     1.0192    -2.1294 H            1    LIG   0.0000
  52 H            0.7793     1.6462    -0.7007 H            1    LIG   0.0000
  53 H           -0.0659     4.7506    -1.9731 H            1    LIG   0.0000
  54 H           -0.2076     3.7882    -0.6615 H            1    LIG   0.0000
  55 H            1.2507     4.3958    -1.0746 H            1    LIG   0.0000
  56 H           -1.2525    -2.3894     2.2494 H            1    LIG   0.0000
  57 H           -2.5872    -2.4500     4.2389 H            1    LIG   0.0000
@<TRIPOS>BOND
   1        1        2 1
   2        2        3 1
   3        3        4 ar
   4        4        5 ar
   5        5        6 ar
   6        6        7 1
   7        7        8 2
   8        8        9 1
   9        9       10 1
  10       10       11 ar
  11       11       12 ar
  12       12       13 ar
  13       13       14 ar
  14       14       15 ar
  15       15       10 ar
  16       15       16 1
  17        9       17 1
  18       17       18 2
  19       18        7 1
  20       18       19 1
  21       19       20 2
  22       20       21 1
  23       21       22 1
  24       22       23 1
  25       22       24 2
  26       24       25 1
  27       25       26 2
  28       26       21 1
  29       26       27 1
  30       27       28 1
  31       28       29 1
  32       29       30 1
  33        6       31 ar
  34       31       32 ar
  35       32        3 ar
  36        1       33 1
  37        1       34 1
  38        1       35 1
  39        2       36 1
  40        2       37 1
  41        4       38 1
  42        5       39 1
  43       11       40 1
  44       12       41 1
  45       13       42 1
  46       14       43 1
  47       16       44 1
  48       16       45 1
  49       16       46 1
  50       17       47 1
  51       19       48 1
  52       27       49 1
  53       27       50 1
  54       28       51 1
  55       28       52 1
  56       30       53 1
  57       30       54 1
  58       30       55 1
  59       31       56 1
  60       32       57 1

@<TRIPOS>MOLECULE

  57   60
SMALL
USER_CHARGES
@<TRIPOS>ATOM
   1 C1          -1.1605    -3.3607     7.8393 C.3          1    LIG   0.0000
   2 C2          -1.8205    -2.4515     6.8155 C.3          1    LIG   0.0000
   3 C3          -0.9753    -2.4123     5.5536 C.ar         1    LIG   0.0000
   4 C4           0.4109    -2.3675     5.6552 C.ar         1    LIG   0.0000
   5 C5           1.1917    -2.3317     4.5045 C.ar         1    LIG   0.0000
   6 C6           0.5692    -2.3402     3.2605 C.ar         1    LIG   0.0000
   7 C7           1.3786    -2.3033     2.0583 C.2          1    LIG   0.0000
   8 N8           2.2796    -3.1842     1.6981 N.2          1    LIG   0.0000
   9 N9           2.8171    -2.8274     0.5514 N.pl3        1    LIG   0.0000
  10 C10          3.8171    -3.5354    -0.1268 C.ar         1    LIG   0.0000
  11 C11          5.0464    -3.7604     0.4842 C.ar         1    LIG   0.0000
  12 C12          6.0400    -4.4630    -0.1897 C.ar         1    LIG   0.0000
  13 C13          5.8040    -4.9418    -1.4742 C.ar         1    LIG   0.0000
  14 C14          4.5743    -4.7170    -2.0854 C.ar         1    LIG   0.0000
  15 C15          3.5809    -4.0144    -1.4116 C.ar         1    LIG   0.0000
  16 C16          2.2372    -3.7693    -2.0791 C.3          1    LIG   0.0000
  17 C17          2.2601    -1.6667     0.1113 C.2          1    LIG   0.0000
  18 C18          1.3444    -1.3151     1.0537 C.2          1    LIG   0.0000
  19 C19          0.4916    -0.1416     1.0265 C.2          1    LIG   0.0000
  20 N20          1.0000     1.0000     1.0000 N.2          1    LIG   0.0000
  21 N21          2.3507     1.0000     1.0000 N.pl3        1    LIG   0.0000
  22 C22          3.1467     0.4712     1.9671 C.2          1    LIG   0.0000
  23 S23          2.6354    -0.3272     3.4248 S.2          1    LIG  -1.0000
  24 N24          4.3795     0.6848     1.5796 N.2          1    LIG   0.0000
  25 N25          4.3831     1.3148     0.4225 N.2          1    LIG   0.0000
  26 C26          3.1481     1.5258     0.0364 C.2          1    LIG   0.0000
  27 C27          2.7037     2.2227    -1.2377 C.3          1    LIG   0.0000
  28 C28          1.2678     1.8359    -1.5524 C.3          1    LIG   0.0000
  29 O29          0.6290     2.9038    -2.2366 O.3          1    LIG   0.0000
  30 C30          0.3834     4.0439    -1.4266 C.3          1    LIG   0.0000
  31 C31         -0.8170    -2.3838     3.1496 C.ar         1    LIG   0.0000
  32 C32         -1.5898    -2.4193     4.3052 C.ar         1    LIG   0.0000
  33 H           -1.7168    -3.3866     8.6699 H            1    LIG   0.0000
  34 H           -1.0805    -4.2837     7.4629 H            1    LIG   0.0000
  35 H           -0.2501    -3.0101     8.0587 H            1    LIG   0.0000
  36 H           -2.7310    -2.8022     6.5962 H            1    LIG   0.0000
  37 H           -1.9006    -1.5285     7.1920 H            1    LIG   0.0000
  38 H            0.8464    -2.3611     6.5553 H            1    LIG   0.0000
  39 H            2.1890    -2.3002     4.5708 H            1    LIG   0.0000
  40 H            5.2158    -3.4169     1.4080 H            1    LIG   0.0000
  41 H            6.9240    -4.6239     0.2493 H            1    LIG   0.0000
  42 H            6.5181    -5.4474    -1.9584 H            1    LIG   0.0000
  43 H            4.4048    -5.0607    -3.0091 H            1    LIG   0.0000
  44 H            2.2388    -4.1781    -2.9917 H            1    LIG   0.0000
  45 H            1.5115    -4.1834    -1.5297 H            1    LIG   0.0000
  46 H            2.0773    -2.7850    -2.1550 H            1    LIG   0.0000
  47 H            2.4787    -1.1740    -0.7309 H            1    LIG   0.0000
  48 H           -0.5029    -0.2461     1.0289 H            1    LIG   0.0000
  49 H            3.2968     1.9455    -1.9936 H            1    LIG   0.0000
  50 H            2.7625     3.2132    -1.1138 H            1    LIG   0.0000
  51 H            1.2613     1.0192    -2.1294 H            1    LIG   0.0000
  52 H            0.7793     1.6462    -0.7007 H            1    LIG   0.0000
  53 H           -0.0659     4.7506    -1.9731 H            1    LIG   0.0000
  54 H           -0.2076     3.7882    -0.6615 H            1    LIG   0.0000
  55 H            1.2507     4.3958    -1.0746 H            1    LIG   0.0000
  56 H           -1.2525    -2.3894     2.2494 H            1    LIG   0.0000
  57 H           -2.5872    -2.4500     4.2389 H            1    LIG   0.0000
@<TRIPOS>BOND
   1        1        2 1
   2        2        3 1
   3        3        4 ar
   4        4        5 ar
   5        5        6 ar
   6        6        7 1
   7        7        8 2
   8        8        9 1
   9        9       10 1
  10       10       11 ar
  11       11       12 ar
  12       12       13 ar
  13       13       14 ar
  14       14       15 ar
  15       15       10 ar
  16       15       16 1
  17        9       17 1
  18       17       18 2
  19       18        7 1
  20       18       19 1
  21       19       20 2
  22       20       21 1
  23       21       22 1
  24       22       23 1
  25       22       24 2
  26       24       25 1
  27       25       26 2
  28       26       21 1
  29       26       27 1
  30       27       28 1
  31       28       29 1
  32       29       30 1
  33        6       31 ar
  34       31       32 ar
  35       32        3 ar
  36        1       33 1
  37        1       34 1
  38        1       35 1
  39        2       36 1
  40        2       37 1
  41        4       38 1
  42        5       39 1
  43       11       40 1
  44       12       41 1
  45       13       42 1
  46       14       43 1
  47       16       44 1
  48       16       45 1
  49       16       46 1
  50       17       47 1
  51       19       48 1
  52       27       49 1
  53       27       50 1
  54       28       51 1
  55       28       52 1
  56       30       53 1
  57       30       54 1
  58       30       55 1
  59       31       56 1
  60       32       57 1

@<TRIPOS>MOLECULE

  57   60
SMALL
USER_CHARGES
@<TRIPOS>ATOM
   1 C1          -1.4666    -3.6890     7.6241 C.3          1    LIG   0.0000
   2 C2          -1.8205    -2.4515     6.8155 C.3          1    LIG   0.0000
   3 C3          -0.9753    -2.4123     5.5536 C.ar         1    LIG   0.0000
   4 C4           0.4109    -2.3675     5.6552 C.ar         1    LIG   0.0000
   5 C5           1.1917    -2.3317     4.5045 C.ar         1    LIG   0.0000
   6 C6           0.5692    -2.3402     3.2605 C.ar         1    LIG   0.0000
   7 C7           1.3786    -2.3033     2.0583 C.2          1    LIG   0.0000
   8 N8           2.2796    -3.1842     1.6981 N.2          1    LIG   0.0000
   9 N9           2.8171    -2.8274     0.5514 N.pl3        1    LIG   0.0000
  10 C10          3.8171    -3.5354    -0.1268 C.ar         1    LIG   0.0000
  11 C11          3.5856    -4.8439    -0.5385 C.ar         1    LIG   0.0000
  12 C12          4.5792    -5.5475    -1.2115 C.ar         1    LIG   0.0000
  13 C13          5.8038    -4.9423    -1.4739 C.ar         1    LIG   0.0000
  14 C14          6.0354    -3.6334    -1.0624 C.ar         1    LIG   0.0000
  15 C15          5.0419    -2.9300    -0.3894 C.ar         1    LIG   0.0000
  16 C16          5.2947    -1.4997     0.0598 C.3          1    LIG   0.0000
  17 C17          2.2601    -1.6667     0.1113 C.2          1    LIG   0.0000
  18 C18          1.3444    -1.3151     1.0537 C.2          1    LIG   0.0000
  19 C19          0.4916    -0.1416     1.0265 C.2          1    LIG   0.0000
  20 N20          1.0000     1.0000     1.0000 N.2          1    LIG   0.0000
  21 N21          2.3507     1.0000     1.0000 N.pl3        1    LIG   0.0000
  22 C22          3.1467     0.4712     1.9671 C.2          1    LIG   0.0000
  23 S23          2.6354    -0.3272     3.4248 S.2          1    LIG  -1.0000
  24 N24          4.3795     0.6848     1.5796 N.2          1    LIG   0.0000
  25 N25          4.3831     1.3148     0.4225 N.2          1    LIG   0.0000
  26 C26          3.1481     1.5258     0.0364 C.2          1    LIG   0.0000
  27 C27          2.7037     2.2227    -1.2377 C.3          1    LIG   0.0000
  28 C28          1.3685     2.9094    -1.0004 C.3          1    LIG   0.0000
  29 O29          0.9530     3.5610    -2.1917 O.3          1    LIG   0.0000
  30 C30          0.1637     4.7205    -1.9707 C.3          1    LIG   0.0000
  31 C31         -0.8170    -2.3838     3.1496 C.ar         1    LIG   0.0000
  32 C32         -1.5898    -2.4193     4.3052 C.ar         1    LIG   0.0000
  33 H           -2.0229    -3.7148     8.4547 H            1    LIG   0.0000
  34 H           -1.6457    -4.5069     7.0774 H            1    LIG   0.0000
  35 H           -0.4983    -3.6593     7.8722 H            1    LIG   0.0000
  36 H           -2.7888    -2.4812     6.5674 H            1    LIG   0.0000
  37 H           -1.6414    -1.6336     7.3623 H            1    LIG   0.0000
  38 H            0.8464    -2.3611     6.5553 H            1    LIG   0.0000
  39 H            2.1890    -2.3002     4.5708 H            1    LIG   0.0000
  40 H            2.7049    -5.2788    -0.3506 H            1    LIG   0.0000
  41 H            4.4130    -6.4884    -1.5066 H            1    LIG   0.0000
  42 H            6.5178    -5.4479    -1.9582 H            1    LIG   0.0000
  43 H            6.9160    -3.1985    -1.2505 H            1    LIG   0.0000
  44 H            6.2180    -1.2245    -0.2080 H            1    LIG   0.0000
  45 H            4.6275    -0.8922    -0.3712 H            1    LIG   0.0000
  46 H            5.2048    -1.4418     1.0541 H            1    LIG   0.0000
  47 H            2.4787    -1.1740    -0.7309 H            1    LIG   0.0000
  48 H           -0.5029    -0.2461     1.0289 H            1    LIG   0.0000
  49 H            2.6062     1.5485    -1.9699 H            1    LIG   0.0000
  50 H            3.3868     2.9040    -1.5007 H            1    LIG   0.0000
  51 H            0.6854     2.2281    -0.7375 H            1    LIG   0.0000
  52 H            1.4659     3.5836    -0.2683 H            1    LIG   0.0000
  53 H           -0.0903     5.1235    -2.8499 H            1    LIG   0.0000
  54 H           -0.6634     4.4697    -1.4676 H            1    LIG   0.0000
  55 H            0.6888     5.3848    -1.4387 H            1    LIG   0.0000
  56 H           -1.2525    -2.3894     2.2494 H            1    LIG   0.0000
  57 H           -2.5872    -2.4500     4.2389 H            1    LIG   0.0000
@<TRIPOS>BOND
   1        1        2 1
   2        2        3 1
   3        3        4 ar
   4        4        5 ar
   5        5        6 ar
   6        6        7 1
   7        7        8 2
   8        8        9 1
   9        9       10 1
  10       10       11 ar
  11       11       12 ar
  12       12       13 ar
  13       13       14 ar
  14       14       15 ar
  15       15       10 ar
  16       15       16 1
  17        9       17 1
  18       17       18 2
  19       18        7 1
  20       18       19 1
  21       19       20 2
  22       20       21 1
  23       21       22 1
  24       22       23 1
  25       22       24 2
  26       24       25 1
  27       25       26 2
  28       26       21 1
  29       26       27 1
  30       27       28 1
  31       28       29 1
  32       29       30 1
  33        6       31 ar
  34       31       32 ar
  35       32        3 ar
  36        1       33 1
  37        1       34 1
  38        1       35 1
  39        2       36 1
  40        2       37 1
  41        4       38 1
  42        5       39 1
  43       11       40 1
  44       12       41 1
  45       13       42 1
  46       14       43 1
  47       16       44 1
  48       16       45 1
  49       16       46 1
  50       17       47 1
  51       19       48 1
  52       27       49 1
  53       27       50 1
  54       28       51 1
  55       28       52 1
  56       30       53 1
  57       30       54 1
  58       30       55 1
  59       31       56 1
  60       32       57 1

@<TRIPOS>MOLECULE

  57   60
SMALL
USER_CHARGES
@<TRIPOS>ATOM
   1 C1          -3.2688    -2.7468     6.4417 C.3          1    LIG   0.0000
   2 C2          -1.8245    -2.4526     6.8129 C.3          1    LIG   0.0000
   3 C3          -0.9763    -2.4102     5.5530 C.ar         1    LIG   0.0000
   4 C4          -0.3778    -3.5759     5.0871 C.ar         1    LIG   0.0000
   5 C5           0.3999    -3.5453     3.9342 C.ar         1    LIG   0.0000
   6 C6           0.5692    -2.3402     3.2605 C.ar         1    LIG   0.0000
   7 C7           1.3786    -2.3033     2.0583 C.2          1    LIG   0.0000
   8 N8           2.2796    -3.1842     1.6981 N.2          1    LIG   0.0000
   9 N9           2.8171    -2.8274     0.5514 N.pl3        1    LIG   0.0000
  10 C10          3.8171    -3.5354    -0.1268 C.ar         1    LIG   0.0000
  11 C11          3.5812    -4.0139    -1.4116 C.ar         1    LIG   0.0000
  12 C12          4.5742    -4.7179    -2.0850 C.ar         1    LIG   0.0000
  13 C13          5.8035    -4.9424    -1.4742 C.ar         1    LIG   0.0000
  14 C14          6.0397    -4.4637    -0.1891 C.ar         1    LIG   0.0000
  15 C15          5.0468    -3.7599     0.4841 C.ar         1    LIG   0.0000
  16 C16          5.3049    -3.2364     1.8879 C.3          1    LIG   0.0000
  17 C17          2.2601    -1.6667     0.1113 C.2          1    LIG   0.0000
  18 C18          1.3444    -1.3151     1.0537 C.2          1    LIG   0.0000
  19 C19          0.4916    -0.1416     1.0265 C.2          1    LIG   0.0000
  20 N20          1.0000     1.0000     1.0000 N.2          1    LIG   0.0000
  21 N21          2.3507     1.0000     1.0000 N.pl3        1    LIG   0.0000
  22 C22          3.1467     0.4712     1.9671 C.2          1    LIG   0.0000
  23 S23          2.6354    -0.3272     3.4248 S.2          1    LIG  -1.0000
  24 N24          4.3795     0.6848     1.5796 N.2          1    LIG   0.0000
  25 N25          4.3831     1.3148     0.4225 N.2          1    LIG   0.0000
  26 C26          3.1481     1.5258     0.0364 C.2          1    LIG   0.0000
  27 C27          2.7037     2.2227    -1.2377 C.3          1    LIG   0.0000
  28 C28          1.3685     2.9094    -1.0004 C.3          1    LIG   0.0000
  29 O29          1.1719     3.9147    -1.9839 O.3          1    LIG   0.0000
  30 C30          1.6745     5.1903    -1.6144 C.3          1    LIG   0.0000
  31 C31         -0.0250    -1.1691     3.7201 C.ar         1    LIG   0.0000
  32 C32         -0.8008    -1.2087     4.8735 C.ar         1    LIG   0.0000
  33 H           -3.8270    -2.7747     7.2709 H            1    LIG   0.0000
  34 H           -3.6097    -2.0292     5.8343 H            1    LIG   0.0000
  35 H           -3.3199    -3.6301     5.9756 H            1    LIG   0.0000
  36 H           -1.7734    -1.5693     7.2789 H            1    LIG   0.0000
  37 H           -1.4836    -3.1702     7.4202 H            1    LIG   0.0000
  38 H           -0.5065    -4.4359     5.5808 H            1    LIG   0.0000
  39 H            0.8324    -4.3802     3.5936 H            1    LIG   0.0000
  40 H            2.6977    -3.8517    -1.8511 H            1    LIG   0.0000
  41 H            4.4042    -5.0625    -3.0082 H            1    LIG   0.0000
  42 H            6.5176    -5.4479    -1.9585 H            1    LIG   0.0000
  43 H            6.9233    -4.6257     0.2502 H            1    LIG   0.0000
  44 H            6.2312    -3.4847     2.1712 H            1    LIG   0.0000
  45 H            5.2096    -2.2410     1.8952 H            1    LIG   0.0000
  46 H            4.6436    -3.6392     2.5207 H            1    LIG   0.0000
  47 H            2.4787    -1.1740    -0.7309 H            1    LIG   0.0000
  48 H           -0.5029    -0.2461     1.0289 H            1    LIG   0.0000
  49 H            2.6062     1.5485    -1.9699 H            1    LIG   0.0000
  50 H            3.3868     2.9040    -1.5007 H            1    LIG   0.0000
  51 H            0.6319     2.2358    -1.0604 H            1    LIG   0.0000
  52 H            1.3653     3.3269    -0.0917 H            1    LIG   0.0000
  53 H            1.5010     5.8433    -2.3516 H            1    LIG   0.0000
  54 H            1.2175     5.4999    -0.7805 H            1    LIG   0.0000
  55 H            2.6589     5.1261    -1.4508 H            1    LIG   0.0000
  56 H            0.1043    -0.3089     3.2268 H            1    LIG   0.0000
  57 H           -1.2326    -0.3737     5.2146 H            1    LIG   0.0000
@<TRIPOS>BOND
   1        1        2 1
   2        2        3 1
   3        3        4 ar
   4        4        5 ar
   5        5        6 ar
   6        6        7 1
   7        7        8 2
   8        8        9 1
   9        9       10 1
  10       10       11 ar
  11       11       12 ar
  12       12       13 ar
  13       13       14 ar
  14       14       15 ar
  15       15       10 ar
  16       15       16 1
  17        9       17 1
  18       17       18 2
  19       18        7 1
  20       18       19 1
  21       19       20 2
  22       20       21 1
  23       21       22 1
  24       22       23 1
  25       22       24 2
  26       24       25 1
  27       25       26 2
  28       26       21 1
  29       26       27 1
  30       27       28 1
  31       28       29 1
  32       29       30 1
  33        6       31 ar
  34       31       32 ar
  35       32        3 ar
  36        1       33 1
  37        1       34 1
  38        1       35 1
  39        2       36 1
  40        2       37 1
  41        4       38 1
  42        5       39 1
  43       11       40 1
  44       12       41 1
  45       13       42 1
  46       14       43 1
  47       16       44 1
  48       16       45 1
  49       16       46 1
  50       17       47 1
  51       19       48 1
  52       27       49 1
  53       27       50 1
  54       28       51 1
  55       28       52 1
  56       30       53 1
  57       30       54 1
  58       30       55 1
  59       31       56 1
  60       32       57 1

@<TRIPOS>MOLECULE

  57   60
SMALL
USER_CHARGES
@<TRIPOS>ATOM
   1 C1          -2.9860    -3.4117     6.6097 C.3          1    LIG   0.0000
   2 C2          -1.8245    -2.4526     6.8129 C.3          1    LIG   0.0000
   3 C3          -0.9763    -2.4102     5.5530 C.ar         1    LIG   0.0000
   4 C4          -0.3778    -3.5759     5.0871 C.ar         1    LIG   0.0000
   5 C5           0.3999    -3.5453     3.9342 C.ar         1    LIG   0.0000
   6 C6           0.5692    -2.3402     3.2605 C.ar         1    LIG   0.0000
   7 C7           1.3786    -2.3033     2.0583 C.2          1    LIG   0.0000
   8 N8           2.2796    -3.1842     1.6981 N.2          1    LIG   0.0000
   9 N9           2.8171    -2.8274     0.5514 N.pl3        1    LIG   0.0000
  10 C10          3.8171    -3.5354    -0.1268 C.ar         1    LIG   0.0000
  11 C11          5.0420    -2.9303    -0.3889 C.ar         1    LIG   0.0000
  12 C12          6.0351    -3.6333    -1.0632 C.ar         1    LIG   0.0000
  13 C13          5.8038    -4.9418    -1.4745 C.ar         1    LIG   0.0000
  14 C14          4.5787    -5.5473    -1.2122 C.ar         1    LIG   0.0000
  15 C15          3.5857    -4.8443    -0.5380 C.ar         1    LIG   0.0000
  16 C16          2.2474    -5.5059    -0.2510 C.3          1    LIG   0.0000
  17 C17          2.2601    -1.6667     0.1113 C.2          1    LIG   0.0000
  18 C18          1.3444    -1.3151     1.0537 C.2          1    LIG   0.0000
  19 C19          0.4916    -0.1416     1.0265 C.2          1    LIG   0.0000
  20 N20          1.0000     1.0000     1.0000 N.2          1    LIG   0.0000
  21 N21          2.3507     1.0000     1.0000 N.pl3        1    LIG   0.0000
  22 C22          3.1467     0.4712     1.9671 C.2          1    LIG   0.0000
  23 S23          2.6354    -0.3272     3.4248 S.2          1    LIG  -1.0000
  24 N24          4.3795     0.6848     1.5796 N.2          1    LIG   0.0000
  25 N25          4.3831     1.3148     0.4225 N.2          1    LIG   0.0000
  26 C26          3.1481     1.5258     0.0364 C.2          1    LIG   0.0000
  27 C27          2.7037     2.2227    -1.2377 C.3          1    LIG   0.0000
  28 C28          1.3685     2.9094    -1.0004 C.3          1    LIG   0.0000
  29 O29          1.1719     3.9147    -1.9839 O.3          1    LIG   0.0000
  30 C30          1.6745     5.1903    -1.6144 C.3          1    LIG   0.0000
  31 C31         -0.0250    -1.1691     3.7201 C.ar         1    LIG   0.0000
  32 C32         -0.8008    -1.2087     4.8735 C.ar         1    LIG   0.0000
  33 H           -3.5442    -3.4396     7.4389 H            1    LIG   0.0000
  34 H           -3.5453    -3.0999     5.8416 H            1    LIG   0.0000
  35 H           -2.6326    -4.3267     6.4148 H            1    LIG   0.0000
  36 H           -2.1779    -1.5376     7.0077 H            1    LIG   0.0000
  37 H           -1.2651    -2.7644     7.5809 H            1    LIG   0.0000
  38 H           -0.5065    -4.4359     5.5808 H            1    LIG   0.0000
  39 H            0.8324    -4.3802     3.5936 H            1    LIG   0.0000
  40 H            5.2086    -1.9899    -0.0925 H            1    LIG   0.0000
  41 H            6.9152    -3.1980    -1.2523 H            1    LIG   0.0000
  42 H            6.5179    -5.4474    -1.9586 H            1    LIG   0.0000
  43 H            4.4121    -6.4878    -1.5084 H            1    LIG   0.0000
  44 H            2.2521    -6.4382    -0.6126 H            1    LIG   0.0000
  45 H            2.0936    -5.5322     0.7367 H            1    LIG   0.0000
  46 H            1.5162    -4.9824    -0.6884 H            1    LIG   0.0000
  47 H            2.4787    -1.1740    -0.7309 H            1    LIG   0.0000
  48 H           -0.5029    -0.2461     1.0289 H            1    LIG   0.0000
  49 H            2.6062     1.5485    -1.9699 H            1    LIG   0.0000
  50 H            3.3868     2.9040    -1.5007 H            1    LIG   0.0000
  51 H            0.6319     2.2358    -1.0604 H            1    LIG   0.0000
  52 H            1.3653     3.3269    -0.0917 H            1    LIG   0.0000
  53 H            1.5010     5.8433    -2.3516 H            1    LIG   0.0000
  54 H            1.2175     5.4999    -0.7805 H            1    LIG   0.0000
  55 H            2.6589     5.1261    -1.4508 H            1    LIG   0.0000
  56 H            0.1043    -0.3089     3.2268 H            1    LIG   0.0000
  57 H           -1.2326    -0.3737     5.2146 H            1    LIG   0.0000
@<TRIPOS>BOND
   1        1        2 1
   2        2        3 1
   3        3        4 ar
   4        4        5 ar
   5        5        6 ar
   6        6        7 1
   7        7        8 2
   8        8        9 1
   9        9       10 1
  10       10       11 ar
  11       11       12 ar
  12       12       13 ar
  13       13       14 ar
  14       14       15 ar
  15       15       10 ar
  16       15       16 1
  17        9       17 1
  18       17       18 2
  19       18        7 1
  20       18       19 1
  21       19       20 2
  22       20       21 1
  23       21       22 1
  24       22       23 1
  25       22       24 2
  26       24       25 1
  27       25       26 2
  28       26       21 1
  29       26       27 1
  30       27       28 1
  31       28       29 1
  32       29       30 1
  33        6       31 ar
  34       31       32 ar
  35       32        3 ar
  36        1       33 1
  37        1       34 1
  38        1       35 1
  39        2       36 1
  40        2       37 1
  41        4       38 1
  42        5       39 1
  43       11       40 1
  44       12       41 1
  45       13       42 1
  46       14       43 1
  47       16       44 1
  48       16       45 1
  49       16       46 1
  50       17       47 1
  51       19       48 1
  52       27       49 1
  53       27       50 1
  54       28       51 1
  55       28       52 1
  56       30       53 1
  57       30       54 1
  58       30       55 1
  59       31       56 1
  60       32       57 1

