@<TRIPOS>MOLECULE
*****
 57 60 0 0 0
SMALL
USER_CHARGES

@<TRIPOS>ATOM
      1 C1         -3.2688   -2.7468    6.4417 C.3     1  LIG1        0.0000
      2 C2         -1.8245   -2.4526    6.8129 C.3     1  LIG1        0.0000
      3 C3         -0.9763   -2.4102    5.5530 C.ar    1  LIG1        0.0000
      4 C4         -0.3778   -3.5759    5.0871 C.ar    1  LIG1        0.0000
      5 C5          0.3999   -3.5453    3.9342 C.ar    1  LIG1        0.0000
      6 C6          0.5692   -2.3402    3.2605 C.ar    1  LIG1        0.0000
      7 C7          1.3786   -2.3033    2.0583 C.2     1  LIG1        0.0000
      8 N8          2.2796   -3.1842    1.6981 N.2     1  LIG1        0.0000
      9 N9          2.8171   -2.8274    0.5514 N.pl3   1  LIG1        0.0000
     10 C10         3.8171   -3.5354   -0.1268 C.ar    1  LIG1        0.0000
     11 C11         3.5812   -4.0139   -1.4116 C.ar    1  LIG1        0.0000
     12 C12         4.5742   -4.7179   -2.0850 C.ar    1  LIG1        0.0000
     13 C13         5.8035   -4.9424   -1.4742 C.ar    1  LIG1        0.0000
     14 C14         6.0397   -4.4637   -0.1891 C.ar    1  LIG1        0.0000
     15 C15         5.0468   -3.7599    0.4841 C.ar    1  LIG1        0.0000
     16 C16         5.3049   -3.2364    1.8879 C.3     1  LIG1        0.0000
     17 C17         2.2601   -1.6667    0.1113 C.2     1  LIG1        0.0000
     18 C18         1.3444   -1.3151    1.0537 C.2     1  LIG1        0.0000
     19 C19         0.4916   -0.1416    1.0265 C.2     1  LIG1        0.0000
     20 N20         1.0000    1.0000    1.0000 N.2     1  LIG1        0.0000
     21 N21         2.3507    1.0000    1.0000 N.pl3   1  LIG1        0.0000
     22 C22         3.1467    0.4712    1.9671 C.2     1  LIG1        0.0000
     23 S23         2.6354   -0.3272    3.4248 S.2     1  LIG1       -1.0000
     24 N24         4.3795    0.6848    1.5796 N.2     1  LIG1        0.0000
     25 N25         4.3831    1.3148    0.4225 N.2     1  LIG1        0.0000
     26 C26         3.1481    1.5258    0.0364 C.2     1  LIG1        0.0000
     27 C27         2.7037    2.2227   -1.2377 C.3     1  LIG1        0.0000
     28 C28         1.3685    2.9094   -1.0004 C.3     1  LIG1        0.0000
     29 O29         1.1719    3.9147   -1.9839 O.3     1  LIG1        0.0000
     30 C30         1.6745    5.1903   -1.6144 C.3     1  LIG1        0.0000
     31 C31        -0.0250   -1.1691    3.7201 C.ar    1  LIG1        0.0000
     32 C32        -0.8008   -1.2087    4.8735 C.ar    1  LIG1        0.0000
     33 H          -3.8270   -2.7747    7.2709 H       1  LIG1        0.0000
     34 H          -3.6097   -2.0292    5.8343 H       1  LIG1        0.0000
     35 H          -3.3199   -3.6301    5.9756 H       1  LIG1        0.0000
     36 H          -1.7734   -1.5693    7.2789 H       1  LIG1        0.0000
     37 H          -1.4836   -3.1702    7.4202 H       1  LIG1        0.0000
     38 H          -0.5065   -4.4359    5.5808 H       1  LIG1        0.0000
     39 H           0.8324   -4.3802    3.5936 H       1  LIG1        0.0000
     40 H           2.6977   -3.8517   -1.8511 H       1  LIG1        0.0000
     41 H           4.4042   -5.0625   -3.0082 H       1  LIG1        0.0000
     42 H           6.5176   -5.4479   -1.9585 H       1  LIG1        0.0000
     43 H           6.9233   -4.6257    0.2502 H       1  LIG1        0.0000
     44 H           6.2312   -3.4847    2.1712 H       1  LIG1        0.0000
     45 H           5.2096   -2.2410    1.8952 H       1  LIG1        0.0000
     46 H           4.6436   -3.6392    2.5207 H       1  LIG1        0.0000
     47 H           2.4787   -1.1740   -0.7309 H       1  LIG1        0.0000
     48 H          -0.5029   -0.2461    1.0289 H       1  LIG1        0.0000
     49 H           2.6062    1.5485   -1.9699 H       1  LIG1        0.0000
     50 H           3.3868    2.9040   -1.5007 H       1  LIG1        0.0000
     51 H           0.6319    2.2358   -1.0604 H       1  LIG1        0.0000
     52 H           1.3653    3.3269   -0.0917 H       1  LIG1        0.0000
     53 H           1.5010    5.8433   -2.3516 H       1  LIG1        0.0000
     54 H           1.2175    5.4999   -0.7805 H       1  LIG1        0.0000
     55 H           2.6589    5.1261   -1.4508 H       1  LIG1        0.0000
     56 H           0.1043   -0.3089    3.2268 H       1  LIG1        0.0000
     57 H          -1.2326   -0.3737    5.2146 H       1  LIG1        0.0000
@<TRIPOS>BOND
     1     1     2    1
     2     2     3    1
     3     3     4   ar
     4     4     5   ar
     5     5     6   ar
     6     6     7    1
     7     7     8    2
     8     8     9    1
     9     9    10    1
    10    10    11   ar
    11    11    12   ar
    12    12    13   ar
    13    13    14   ar
    14    14    15   ar
    15    15    10   ar
    16    15    16    1
    17     9    17    1
    18    17    18    2
    19    18     7    1
    20    18    19    1
    21    19    20    2
    22    20    21    1
    23    21    22    1
    24    22    23    1
    25    22    24    2
    26    24    25    1
    27    25    26    2
    28    26    21    1
    29    26    27    1
    30    27    28    1
    31    28    29    1
    32    29    30    1
    33     6    31   ar
    34    31    32   ar
    35    32     3   ar
    36     1    33    1
    37     1    34    1
    38     1    35    1
    39     2    36    1
    40     2    37    1
    41     4    38    1
    42     5    39    1
    43    11    40    1
    44    12    41    1
    45    13    42    1
    46    14    43    1
    47    16    44    1
    48    16    45    1
    49    16    46    1
    50    17    47    1
    51    19    48    1
    52    27    49    1
    53    27    50    1
    54    28    51    1
    55    28    52    1
    56    30    53    1
    57    30    54    1
    58    30    55    1
    59    31    56    1
    60    32    57    1
