@<TRIPOS>MOLECULE
*****
 57 60 0 0 0
SMALL
USER_CHARGES

@<TRIPOS>ATOM
      1 C1         -1.1605   -3.3607    7.8393 C.3     1  LIG1        0.0000
      2 C2         -1.8205   -2.4515    6.8155 C.3     1  LIG1        0.0000
      3 C3         -0.9753   -2.4123    5.5536 C.ar    1  LIG1        0.0000
      4 C4          0.4109   -2.3675    5.6552 C.ar    1  LIG1        0.0000
      5 C5          1.1917   -2.3317    4.5045 C.ar    1  LIG1        0.0000
      6 C6          0.5692   -2.3402    3.2605 C.ar    1  LIG1        0.0000
      7 C7          1.3786   -2.3033    2.0583 C.2     1  LIG1        0.0000
      8 N8          2.2796   -3.1842    1.6981 N.2     1  LIG1        0.0000
      9 N9          2.8171   -2.8274    0.5514 N.pl3   1  LIG1        0.0000
     10 C10         3.8171   -3.5354   -0.1268 C.ar    1  LIG1        0.0000
     11 C11         4.3094   -3.0571   -1.3368 C.ar    1  LIG1        0.0000
     12 C12         5.3022   -3.7607   -2.0109 C.ar    1  LIG1        0.0000
     13 C13         5.8035   -4.9422   -1.4745 C.ar    1  LIG1        0.0000
     14 C14         5.3114   -5.4206   -0.2641 C.ar    1  LIG1        0.0000
     15 C15         4.3187   -4.7171    0.4098 C.ar    1  LIG1        0.0000
     16 C16         3.7812   -5.2395    1.7325 C.3     1  LIG1        0.0000
     17 C17         2.2601   -1.6667    0.1113 C.2     1  LIG1        0.0000
     18 C18         1.3444   -1.3151    1.0537 C.2     1  LIG1        0.0000
     19 C19         0.4916   -0.1416    1.0265 C.2     1  LIG1        0.0000
     20 N20         1.0000    1.0000    1.0000 N.2     1  LIG1        0.0000
     21 N21         2.3507    1.0000    1.0000 N.pl3   1  LIG1        0.0000
     22 C22         3.1467    0.4712    1.9671 C.2     1  LIG1        0.0000
     23 S23         2.6354   -0.3272    3.4248 S.2     1  LIG1       -1.0000
     24 N24         4.3795    0.6848    1.5796 N.2     1  LIG1        0.0000
     25 N25         4.3831    1.3148    0.4225 N.2     1  LIG1        0.0000
     26 C26         3.1481    1.5258    0.0364 C.2     1  LIG1        0.0000
     27 C27         2.7037    2.2227   -1.2377 C.3     1  LIG1        0.0000
     28 C28         1.2678    1.8359   -1.5524 C.3     1  LIG1        0.0000
     29 O29         0.6290    2.9038   -2.2366 O.3     1  LIG1        0.0000
     30 C30         0.3834    4.0439   -1.4266 C.3     1  LIG1        0.0000
     31 C31        -0.8170   -2.3838    3.1496 C.ar    1  LIG1        0.0000
     32 C32        -1.5898   -2.4193    4.3052 C.ar    1  LIG1        0.0000
     33 H          -1.7168   -3.3866    8.6699 H       1  LIG1        0.0000
     34 H          -1.0805   -4.2837    7.4629 H       1  LIG1        0.0000
     35 H          -0.2501   -3.0101    8.0587 H       1  LIG1        0.0000
     36 H          -2.7310   -2.8022    6.5962 H       1  LIG1        0.0000
     37 H          -1.9006   -1.5285    7.1920 H       1  LIG1        0.0000
     38 H           0.8464   -2.3611    6.5553 H       1  LIG1        0.0000
     39 H           2.1890   -2.3002    4.5708 H       1  LIG1        0.0000
     40 H           3.9495   -2.2073   -1.7220 H       1  LIG1        0.0000
     41 H           5.6554   -3.4172   -2.8811 H       1  LIG1        0.0000
     42 H           6.5177   -5.4476   -1.9587 H       1  LIG1        0.0000
     43 H           5.6714   -6.2703    0.1213 H       1  LIG1        0.0000
     44 H           4.2483   -6.0915    1.9689 H       1  LIG1        0.0000
     45 H           3.9426   -4.5610    2.4492 H       1  LIG1        0.0000
     46 H           2.7993   -5.4095    1.6495 H       1  LIG1        0.0000
     47 H           2.4787   -1.1740   -0.7309 H       1  LIG1        0.0000
     48 H          -0.5029   -0.2461    1.0289 H       1  LIG1        0.0000
     49 H           3.2968    1.9455   -1.9936 H       1  LIG1        0.0000
     50 H           2.7625    3.2132   -1.1138 H       1  LIG1        0.0000
     51 H           1.2613    1.0192   -2.1294 H       1  LIG1        0.0000
     52 H           0.7793    1.6462   -0.7007 H       1  LIG1        0.0000
     53 H          -0.0659    4.7506   -1.9731 H       1  LIG1        0.0000
     54 H          -0.2076    3.7882   -0.6615 H       1  LIG1        0.0000
     55 H           1.2507    4.3958   -1.0746 H       1  LIG1        0.0000
     56 H          -1.2525   -2.3894    2.2494 H       1  LIG1        0.0000
     57 H          -2.5872   -2.4500    4.2389 H       1  LIG1        0.0000
@<TRIPOS>BOND
     1     1     2    1
     2     2     3    1
     3     3     4   ar
     4     4     5   ar
     5     5     6   ar
     6     6     7    1
     7     7     8    2
     8     8     9    1
     9     9    10    1
    10    10    11   ar
    11    11    12   ar
    12    12    13   ar
    13    13    14   ar
    14    14    15   ar
    15    15    10   ar
    16    15    16    1
    17     9    17    1
    18    17    18    2
    19    18     7    1
    20    18    19    1
    21    19    20    2
    22    20    21    1
    23    21    22    1
    24    22    23    1
    25    22    24    2
    26    24    25    1
    27    25    26    2
    28    26    21    1
    29    26    27    1
    30    27    28    1
    31    28    29    1
    32    29    30    1
    33     6    31   ar
    34    31    32   ar
    35    32     3   ar
    36     1    33    1
    37     1    34    1
    38     1    35    1
    39     2    36    1
    40     2    37    1
    41     4    38    1
    42     5    39    1
    43    11    40    1
    44    12    41    1
    45    13    42    1
    46    14    43    1
    47    16    44    1
    48    16    45    1
    49    16    46    1
    50    17    47    1
    51    19    48    1
    52    27    49    1
    53    27    50    1
    54    28    51    1
    55    28    52    1
    56    30    53    1
    57    30    54    1
    58    30    55    1
    59    31    56    1
    60    32    57    1
