@<TRIPOS>MOLECULE

  60   65
SMALL
USER_CHARGES
@<TRIPOS>ATOM
   1 C1           5.4281     1.8025    -4.1997 C.3          1    LIG   0.0000
   2 C2           4.2895     1.3943    -3.2802 C.ar         1    LIG   0.0000
   3 C3           2.9797     1.7089    -3.6257 C.ar         1    LIG   0.0000
   4 C4           1.9318     1.3384    -2.7893 C.ar         1    LIG   0.0000
   5 C5           2.2122     0.6547    -1.6108 C.ar         1    LIG   0.0000
   6 C6           1.1234     0.2661    -0.7360 C.2          1    LIG   0.0000
   7 C7           0.7587     1.1209     0.2008 C.2          1    LIG   0.0000
   8 C8          -0.3734     0.7265     1.1352 C.3          1    LIG   0.0000
   9 C9          -1.1281     1.9924     1.5063 C.ar         1    LIG   0.0000
  10 C10         -1.7109     2.0964     2.7650 C.ar         1    LIG   0.0000
  11 C11         -2.4015     3.2569     3.0986 C.ar         1    LIG   0.0000
  12 C12         -2.5021     4.2949     2.1791 C.ar         1    LIG   0.0000
  13 C13         -3.2583     5.5595     2.5546 C.3          1    LIG   0.0000
  14 C14         -1.9167     4.1814     0.9220 C.ar         1    LIG   0.0000
  15 C15         -1.2235     3.0252     0.5794 C.ar         1    LIG   0.0000
  16 N16         -1.2789    -0.2535     0.5157 N.pl3        1    LIG   0.0000
  17 N17         -2.5472    -0.4998     0.7548 N.2          1    LIG   0.0000
  18 N18         -2.9556    -1.4311    -0.0003 N.2          1    LIG   0.0000
  19 N19         -1.9548    -1.8233    -0.7601 N.2          1    LIG   0.0000
  20 C20         -0.8909    -1.1052    -0.4552 C.2          1    LIG   0.0000
  21 N21          0.4607    -0.9661    -0.8509 N.pl3        1    LIG   0.0000
  22 C22          1.2162    -2.1089    -1.3859 C.3          1    LIG   0.0000
  23 C23          1.0615    -2.1556    -2.8973 C.2          1    LIG   0.0000
  24 O24          0.3968    -1.3289    -3.4583 O.2          1    LIG   0.0000
  25 N25          1.6810    -3.1416    -3.6191 N.2          1    LIG   0.0000
  26 C26          2.3540    -3.9546    -2.9118 C.2          1    LIG   0.0000
  27 N27          1.8991    -5.1447    -2.4314 N.pl3        1    LIG   0.0000
  28 C28          2.9196    -5.7106    -1.7263 C.ar         1    LIG   0.0000
  29 C29          2.9871    -6.9146    -1.0358 C.ar         1    LIG   0.0000
  30 C30          4.1613    -7.2803    -0.3856 C.ar         1    LIG   0.0000
  31 C31          5.2655    -6.4348    -0.4284 C.ar         1    LIG   0.0000
  32 C32          5.1760    -5.2324    -1.1229 C.ar         1    LIG   0.0000
  33 C33          4.0027    -4.8639    -1.7741 C.ar         1    LIG   0.0000
  34 N34          3.6461    -3.7741    -2.5138 N.pl3        1    LIG   0.0000
  35 C35          3.5196     0.3368    -1.2569 C.ar         1    LIG   0.0000
  36 C36          4.5612     0.7110    -2.0989 C.ar         1    LIG   0.0000
  37 H            0.0163     0.3273     1.9651 H            1    LIG   0.0000
  38 H            0.9873    -5.5312    -2.5698 H            1    LIG   0.0000
  39 H            4.2259    -2.9872    -2.7252 H            1    LIG   0.0000
  40 H            6.2975     1.5024    -3.8071 H            1    LIG   0.0000
  41 H            5.3021     1.3764    -5.0956 H            1    LIG   0.0000
  42 H            5.4340     2.7972    -4.3016 H            1    LIG   0.0000
  43 H            2.7912     2.2015    -4.4753 H            1    LIG   0.0000
  44 H            0.9877     1.5611    -3.0324 H            1    LIG   0.0000
  45 H            1.2155     2.0056     0.2935 H            1    LIG   0.0000
  46 H           -1.6343     1.3463     3.4218 H            1    LIG   0.0000
  47 H           -2.8257     3.3446     3.9999 H            1    LIG   0.0000
  48 H           -3.2364     6.2011     1.7878 H            1    LIG   0.0000
  49 H           -4.2074     5.3291     2.7693 H            1    LIG   0.0000
  50 H           -2.8285     5.9802     3.3535 H            1    LIG   0.0000
  51 H           -1.9943     4.9311     0.2647 H            1    LIG   0.0000
  52 H           -0.7992     2.9375    -0.3219 H            1    LIG   0.0000
  53 H            0.8645    -2.9565    -0.9885 H            1    LIG   0.0000
  54 H            2.1834    -2.0076    -1.1528 H            1    LIG   0.0000
  55 H            2.1908    -7.5188    -1.0062 H            1    LIG   0.0000
  56 H            4.2116    -8.1471     0.1104 H            1    LIG   0.0000
  57 H            6.1144    -6.6885     0.0352 H            1    LIG   0.0000
  58 H            5.9681    -4.6229    -1.1546 H            1    LIG   0.0000
  59 H            3.7082    -0.1551    -0.4069 H            1    LIG   0.0000
  60 H            5.5054     0.4891    -1.8554 H            1    LIG   0.0000
@<TRIPOS>BOND
   1        1        2 1
   2        2        3 ar
   3        3        4 ar
   4        4        5 ar
   5        5        6 1
   6        6        7 2
   7        7        8 1
   8        8        9 1
   9        9       10 ar
  10       10       11 ar
  11       11       12 ar
  12       12       13 1
  13       12       14 ar
  14       14       15 ar
  15       15        9 ar
  16        8       16 1
  17       16       17 1
  18       17       18 2
  19       18       19 1
  20       19       20 2
  21       20       16 1
  22       20       21 1
  23       21        6 1
  24       21       22 1
  25       22       23 1
  26       23       24 2
  27       23       25 1
  28       25       26 2
  29       26       27 1
  30       27       28 1
  31       28       29 ar
  32       29       30 ar
  33       30       31 ar
  34       31       32 ar
  35       32       33 ar
  36       33       28 ar
  37       33       34 1
  38       34       26 1
  39        5       35 ar
  40       35       36 ar
  41       36        2 ar
  42        8       37 1
  43       27       38 1
  44       34       39 1
  45        1       40 1
  46        1       41 1
  47        1       42 1
  48        3       43 1
  49        4       44 1
  50        7       45 1
  51       10       46 1
  52       11       47 1
  53       13       48 1
  54       13       49 1
  55       13       50 1
  56       14       51 1
  57       15       52 1
  58       22       53 1
  59       22       54 1
  60       29       55 1
  61       30       56 1
  62       31       57 1
  63       32       58 1
  64       35       59 1
  65       36       60 1

@<TRIPOS>MOLECULE

  60   65
SMALL
USER_CHARGES
@<TRIPOS>ATOM
   1 C1           5.4281     1.8025    -4.1997 C.3          1    LIG   0.0000
   2 C2           4.2895     1.3943    -3.2802 C.ar         1    LIG   0.0000
   3 C3           2.9797     1.7089    -3.6257 C.ar         1    LIG   0.0000
   4 C4           1.9318     1.3384    -2.7893 C.ar         1    LIG   0.0000
   5 C5           2.2122     0.6547    -1.6108 C.ar         1    LIG   0.0000
   6 C6           1.1234     0.2661    -0.7360 C.2          1    LIG   0.0000
   7 C7           0.7587     1.1209     0.2008 C.2          1    LIG   0.0000
   8 C8          -0.3734     0.7265     1.1352 C.3          1    LIG   0.0000
   9 C9          -1.1281     1.9924     1.5063 C.ar         1    LIG   0.0000
  10 C10         -1.7109     2.0964     2.7650 C.ar         1    LIG   0.0000
  11 C11         -2.4015     3.2569     3.0986 C.ar         1    LIG   0.0000
  12 C12         -2.5021     4.2949     2.1791 C.ar         1    LIG   0.0000
  13 C13         -3.2583     5.5595     2.5546 C.3          1    LIG   0.0000
  14 C14         -1.9167     4.1814     0.9220 C.ar         1    LIG   0.0000
  15 C15         -1.2235     3.0252     0.5794 C.ar         1    LIG   0.0000
  16 N16         -1.2789    -0.2535     0.5157 N.pl3        1    LIG   0.0000
  17 N17         -2.5472    -0.4998     0.7548 N.2          1    LIG   0.0000
  18 N18         -2.9556    -1.4311    -0.0003 N.2          1    LIG   0.0000
  19 N19         -1.9548    -1.8233    -0.7601 N.2          1    LIG   0.0000
  20 C20         -0.8909    -1.1052    -0.4552 C.2          1    LIG   0.0000
  21 N21          0.4607    -0.9661    -0.8509 N.pl3        1    LIG   0.0000
  22 C22          1.2162    -2.1089    -1.3859 C.3          1    LIG   0.0000
  23 C23          1.0615    -2.1556    -2.8973 C.2          1    LIG   0.0000
  24 O24          0.3968    -1.3289    -3.4583 O.2          1    LIG   0.0000
  25 N25          1.6810    -3.1416    -3.6191 N.2          1    LIG   0.0000
  26 C26          1.4752    -3.0725    -4.8709 C.2          1    LIG   0.0000
  27 N27          0.3713    -3.5416    -5.5152 N.pl3        1    LIG   0.0000
  28 C28          0.5358    -3.2748    -6.8421 C.ar         1    LIG   0.0000
  29 C29         -0.2866    -3.5413    -7.9300 C.ar         1    LIG   0.0000
  30 C30          0.1058    -3.1623    -9.2097 C.ar         1    LIG   0.0000
  31 C31          1.3250    -2.5179    -9.3948 C.ar         1    LIG   0.0000
  32 C32          2.1348    -2.2631    -8.2925 C.ar         1    LIG   0.0000
  33 C33          1.7450    -2.6412    -7.0113 C.ar         1    LIG   0.0000
  34 N34          2.3246    -2.5165    -5.7821 N.pl3        1    LIG   0.0000
  35 C35          3.5196     0.3368    -1.2569 C.ar         1    LIG   0.0000
  36 C36          4.5612     0.7110    -2.0989 C.ar         1    LIG   0.0000
  37 H            0.0163     0.3273     1.9651 H            1    LIG   0.0000
  38 H           -0.4133    -3.9967    -5.0940 H            1    LIG   0.0000
  39 H            3.2097    -2.0949    -5.5855 H            1    LIG   0.0000
  40 H            6.2975     1.5024    -3.8071 H            1    LIG   0.0000
  41 H            5.3021     1.3764    -5.0956 H            1    LIG   0.0000
  42 H            5.4340     2.7972    -4.3016 H            1    LIG   0.0000
  43 H            2.7912     2.2015    -4.4753 H            1    LIG   0.0000
  44 H            0.9877     1.5611    -3.0324 H            1    LIG   0.0000
  45 H            1.2155     2.0056     0.2935 H            1    LIG   0.0000
  46 H           -1.6343     1.3463     3.4218 H            1    LIG   0.0000
  47 H           -2.8257     3.3446     3.9999 H            1    LIG   0.0000
  48 H           -3.2364     6.2011     1.7878 H            1    LIG   0.0000
  49 H           -4.2074     5.3291     2.7693 H            1    LIG   0.0000
  50 H           -2.8285     5.9802     3.3535 H            1    LIG   0.0000
  51 H           -1.9943     4.9311     0.2647 H            1    LIG   0.0000
  52 H           -0.7992     2.9375    -0.3219 H            1    LIG   0.0000
  53 H            0.8645    -2.9565    -0.9885 H            1    LIG   0.0000
  54 H            2.1834    -2.0076    -1.1528 H            1    LIG   0.0000
  55 H           -1.1614    -4.0060    -7.7929 H            1    LIG   0.0000
  56 H           -0.4858    -3.3521    -9.9932 H            1    LIG   0.0000
  57 H            1.6161    -2.2407   -10.3105 H            1    LIG   0.0000
  58 H            3.0117    -1.8005    -8.4231 H            1    LIG   0.0000
  59 H            3.7082    -0.1551    -0.4069 H            1    LIG   0.0000
  60 H            5.5054     0.4891    -1.8554 H            1    LIG   0.0000
@<TRIPOS>BOND
   1        1        2 1
   2        2        3 ar
   3        3        4 ar
   4        4        5 ar
   5        5        6 1
   6        6        7 2
   7        7        8 1
   8        8        9 1
   9        9       10 ar
  10       10       11 ar
  11       11       12 ar
  12       12       13 1
  13       12       14 ar
  14       14       15 ar
  15       15        9 ar
  16        8       16 1
  17       16       17 1
  18       17       18 2
  19       18       19 1
  20       19       20 2
  21       20       16 1
  22       20       21 1
  23       21        6 1
  24       21       22 1
  25       22       23 1
  26       23       24 2
  27       23       25 1
  28       25       26 2
  29       26       27 1
  30       27       28 1
  31       28       29 ar
  32       29       30 ar
  33       30       31 ar
  34       31       32 ar
  35       32       33 ar
  36       33       28 ar
  37       33       34 1
  38       34       26 1
  39        5       35 ar
  40       35       36 ar
  41       36        2 ar
  42        8       37 1
  43       27       38 1
  44       34       39 1
  45        1       40 1
  46        1       41 1
  47        1       42 1
  48        3       43 1
  49        4       44 1
  50        7       45 1
  51       10       46 1
  52       11       47 1
  53       13       48 1
  54       13       49 1
  55       13       50 1
  56       14       51 1
  57       15       52 1
  58       22       53 1
  59       22       54 1
  60       29       55 1
  61       30       56 1
  62       31       57 1
  63       32       58 1
  64       35       59 1
  65       36       60 1

@<TRIPOS>MOLECULE

  60   65
SMALL
USER_CHARGES
@<TRIPOS>ATOM
   1 C1           5.4281     1.8025    -4.1997 C.3          1    LIG   0.0000
   2 C2           4.2895     1.3943    -3.2802 C.ar         1    LIG   0.0000
   3 C3           2.9797     1.7089    -3.6257 C.ar         1    LIG   0.0000
   4 C4           1.9318     1.3384    -2.7893 C.ar         1    LIG   0.0000
   5 C5           2.2122     0.6547    -1.6108 C.ar         1    LIG   0.0000
   6 C6           1.1234     0.2661    -0.7360 C.2          1    LIG   0.0000
   7 C7           0.7587     1.1209     0.2008 C.2          1    LIG   0.0000
   8 C8          -0.3734     0.7265     1.1352 C.3          1    LIG   0.0000
   9 C9          -1.1281     1.9924     1.5063 C.ar         1    LIG   0.0000
  10 C10         -1.7109     2.0964     2.7650 C.ar         1    LIG   0.0000
  11 C11         -2.4015     3.2569     3.0986 C.ar         1    LIG   0.0000
  12 C12         -2.5021     4.2949     2.1791 C.ar         1    LIG   0.0000
  13 C13         -3.2583     5.5595     2.5546 C.3          1    LIG   0.0000
  14 C14         -1.9167     4.1814     0.9220 C.ar         1    LIG   0.0000
  15 C15         -1.2235     3.0252     0.5794 C.ar         1    LIG   0.0000
  16 N16         -1.2789    -0.2535     0.5157 N.pl3        1    LIG   0.0000
  17 N17         -2.5472    -0.4998     0.7548 N.2          1    LIG   0.0000
  18 N18         -2.9556    -1.4311    -0.0003 N.2          1    LIG   0.0000
  19 N19         -1.9548    -1.8233    -0.7601 N.2          1    LIG   0.0000
  20 C20         -0.8909    -1.1052    -0.4552 C.2          1    LIG   0.0000
  21 N21          0.4607    -0.9661    -0.8509 N.pl3        1    LIG   0.0000
  22 C22          1.2162    -2.1089    -1.3859 C.3          1    LIG   0.0000
  23 C23          1.0615    -2.1556    -2.8973 C.2          1    LIG   0.0000
  24 O24          2.0292    -2.0737    -3.6023 O.2          1    LIG   0.0000
  25 N25         -0.1826    -2.2913    -3.4547 N.2          1    LIG   0.0000
  26 C26         -0.7670    -1.1877    -3.6888 C.2          1    LIG   0.0000
  27 N27         -1.6644    -0.9680    -4.6890 N.pl3        1    LIG   0.0000
  28 C28         -2.0552     0.3352    -4.6000 C.ar         1    LIG   0.0000
  29 C29         -2.9473     1.0697    -5.3717 C.ar         1    LIG   0.0000
  30 C30         -3.1861     2.4081    -5.0767 C.ar         1    LIG   0.0000
  31 C31         -2.5266     3.0072    -4.0081 C.ar         1    LIG   0.0000
  32 C32         -1.6351     2.2548    -3.2499 C.ar         1    LIG   0.0000
  33 C33         -1.3941     0.9159    -3.5426 C.ar         1    LIG   0.0000
  34 N34         -0.5953    -0.0359    -2.9785 N.pl3        1    LIG   0.0000
  35 C35          3.5196     0.3368    -1.2569 C.ar         1    LIG   0.0000
  36 C36          4.5612     0.7110    -2.0989 C.ar         1    LIG   0.0000
  37 H            0.0163     0.3273     1.9651 H            1    LIG   0.0000
  38 H           -1.9782    -1.6371    -5.3626 H            1    LIG   0.0000
  39 H            0.0057     0.0882    -2.1890 H            1    LIG   0.0000
  40 H            6.2975     1.5024    -3.8071 H            1    LIG   0.0000
  41 H            5.3021     1.3764    -5.0956 H            1    LIG   0.0000
  42 H            5.4340     2.7972    -4.3016 H            1    LIG   0.0000
  43 H            2.7912     2.2015    -4.4753 H            1    LIG   0.0000
  44 H            0.9877     1.5611    -3.0324 H            1    LIG   0.0000
  45 H            1.2155     2.0056     0.2935 H            1    LIG   0.0000
  46 H           -1.6343     1.3463     3.4218 H            1    LIG   0.0000
  47 H           -2.8257     3.3446     3.9999 H            1    LIG   0.0000
  48 H           -3.2364     6.2011     1.7878 H            1    LIG   0.0000
  49 H           -4.2074     5.3291     2.7693 H            1    LIG   0.0000
  50 H           -2.8285     5.9802     3.3535 H            1    LIG   0.0000
  51 H           -1.9943     4.9311     0.2647 H            1    LIG   0.0000
  52 H           -0.7992     2.9375    -0.3219 H            1    LIG   0.0000
  53 H            0.8645    -2.9565    -0.9885 H            1    LIG   0.0000
  54 H            2.1834    -2.0076    -1.1528 H            1    LIG   0.0000
  55 H           -3.4182     0.6358    -6.1398 H            1    LIG   0.0000
  56 H           -3.8290     2.9373    -5.6304 H            1    LIG   0.0000
  57 H           -2.6916     3.9685    -3.7874 H            1    LIG   0.0000
  58 H           -1.1595     2.6833    -2.4817 H            1    LIG   0.0000
  59 H            3.7082    -0.1551    -0.4069 H            1    LIG   0.0000
  60 H            5.5054     0.4891    -1.8554 H            1    LIG   0.0000
@<TRIPOS>BOND
   1        1        2 1
   2        2        3 ar
   3        3        4 ar
   4        4        5 ar
   5        5        6 1
   6        6        7 2
   7        7        8 1
   8        8        9 1
   9        9       10 ar
  10       10       11 ar
  11       11       12 ar
  12       12       13 1
  13       12       14 ar
  14       14       15 ar
  15       15        9 ar
  16        8       16 1
  17       16       17 1
  18       17       18 2
  19       18       19 1
  20       19       20 2
  21       20       16 1
  22       20       21 1
  23       21        6 1
  24       21       22 1
  25       22       23 1
  26       23       24 2
  27       23       25 1
  28       25       26 2
  29       26       27 1
  30       27       28 1
  31       28       29 ar
  32       29       30 ar
  33       30       31 ar
  34       31       32 ar
  35       32       33 ar
  36       33       28 ar
  37       33       34 1
  38       34       26 1
  39        5       35 ar
  40       35       36 ar
  41       36        2 ar
  42        8       37 1
  43       27       38 1
  44       34       39 1
  45        1       40 1
  46        1       41 1
  47        1       42 1
  48        3       43 1
  49        4       44 1
  50        7       45 1
  51       10       46 1
  52       11       47 1
  53       13       48 1
  54       13       49 1
  55       13       50 1
  56       14       51 1
  57       15       52 1
  58       22       53 1
  59       22       54 1
  60       29       55 1
  61       30       56 1
  62       31       57 1
  63       32       58 1
  64       35       59 1
  65       36       60 1

@<TRIPOS>MOLECULE

  60   65
SMALL
USER_CHARGES
@<TRIPOS>ATOM
   1 C1           5.4303     1.7998    -4.1981 C.3          1    LIG   0.0000
   2 C2           4.2904     1.3951    -3.2788 C.ar         1    LIG   0.0000
   3 C3           3.2918     0.5506    -3.7518 C.ar         1    LIG   0.0000
   4 C4           2.2450     0.1752    -2.9162 C.ar         1    LIG   0.0000
   5 C5           2.2122     0.6547    -1.6108 C.ar         1    LIG   0.0000
   6 C6           1.1234     0.2661    -0.7360 C.2          1    LIG   0.0000
   7 C7           0.7587     1.1209     0.2008 C.2          1    LIG   0.0000
   8 C8          -0.3734     0.7265     1.1352 C.3          1    LIG   0.0000
   9 C9          -1.1281     1.9924     1.5063 C.ar         1    LIG   0.0000
  10 C10         -1.7109     2.0964     2.7650 C.ar         1    LIG   0.0000
  11 C11         -2.4015     3.2569     3.0986 C.ar         1    LIG   0.0000
  12 C12         -2.5021     4.2949     2.1791 C.ar         1    LIG   0.0000
  13 C13         -3.2583     5.5595     2.5546 C.3          1    LIG   0.0000
  14 C14         -1.9167     4.1814     0.9220 C.ar         1    LIG   0.0000
  15 C15         -1.2235     3.0252     0.5794 C.ar         1    LIG   0.0000
  16 N16         -1.2789    -0.2535     0.5157 N.pl3        1    LIG   0.0000
  17 N17         -2.5472    -0.4998     0.7548 N.2          1    LIG   0.0000
  18 N18         -2.9556    -1.4311    -0.0003 N.2          1    LIG   0.0000
  19 N19         -1.9548    -1.8233    -0.7601 N.2          1    LIG   0.0000
  20 C20         -0.8909    -1.1052    -0.4552 C.2          1    LIG   0.0000
  21 N21          0.4607    -0.9661    -0.8509 N.pl3        1    LIG   0.0000
  22 C22          1.2162    -2.1089    -1.3859 C.3          1    LIG   0.0000
  23 C23          1.8914    -2.8496    -0.2432 C.2          1    LIG   0.0000
  24 O24          1.3098    -3.0111     0.7939 O.2          1    LIG   0.0000
  25 N25          3.1641    -3.3327    -0.3972 N.2          1    LIG   0.0000
  26 C26          4.0729    -2.5120    -0.0586 C.2          1    LIG   0.0000
  27 N27          5.2741    -2.8476     0.4879 N.pl3        1    LIG   0.0000
  28 C28          5.9562    -1.6872     0.7041 C.ar         1    LIG   0.0000
  29 C29          7.2188    -1.4630     1.2394 C.ar         1    LIG   0.0000
  30 C30          7.7055    -0.1651     1.3575 C.ar         1    LIG   0.0000
  31 C31          6.9220     0.9059     0.9396 C.ar         1    LIG   0.0000
  32 C32          5.6594     0.6599     0.4091 C.ar         1    LIG   0.0000
  33 C33          5.1699    -0.6372     0.2899 C.ar         1    LIG   0.0000
  34 N34          4.0004    -1.1557    -0.1849 N.pl3        1    LIG   0.0000
  35 C35          3.2064     1.5008    -1.1297 C.ar         1    LIG   0.0000
  36 C36          4.2492     1.8710    -1.9719 C.ar         1    LIG   0.0000
  37 H            0.0163     0.3273     1.9651 H            1    LIG   0.0000
  38 H            5.5957    -3.7722     0.6923 H            1    LIG   0.0000
  39 H            3.2311    -0.6366    -0.5573 H            1    LIG   0.0000
  40 H            6.0567     2.4044    -3.7061 H            1    LIG   0.0000
  41 H            5.9225     0.9828    -4.4983 H            1    LIG   0.0000
  42 H            5.0619     2.2786    -4.9950 H            1    LIG   0.0000
  43 H            3.3263     0.2132    -4.6925 H            1    LIG   0.0000
  44 H            1.5243    -0.4323    -3.2500 H            1    LIG   0.0000
  45 H            1.2155     2.0056     0.2935 H            1    LIG   0.0000
  46 H           -1.6343     1.3463     3.4218 H            1    LIG   0.0000
  47 H           -2.8257     3.3446     3.9999 H            1    LIG   0.0000
  48 H           -3.2364     6.2011     1.7878 H            1    LIG   0.0000
  49 H           -4.2074     5.3291     2.7693 H            1    LIG   0.0000
  50 H           -2.8285     5.9802     3.3535 H            1    LIG   0.0000
  51 H           -1.9943     4.9311     0.2647 H            1    LIG   0.0000
  52 H           -0.7992     2.9375    -0.3219 H            1    LIG   0.0000
  53 H            1.9104    -1.7794    -2.0259 H            1    LIG   0.0000
  54 H            0.5915    -2.7282    -1.8616 H            1    LIG   0.0000
  55 H            7.7782    -2.2355     1.5400 H            1    LIG   0.0000
  56 H            8.6145    -0.0027     1.7412 H            1    LIG   0.0000
  57 H            7.2627     1.8427     1.0196 H            1    LIG   0.0000
  58 H            5.0943     1.4282     0.1085 H            1    LIG   0.0000
  59 H            3.1715     1.8387    -0.1891 H            1    LIG   0.0000
  60 H            4.9695     2.4792    -1.6383 H            1    LIG   0.0000
@<TRIPOS>BOND
   1        1        2 1
   2        2        3 ar
   3        3        4 ar
   4        4        5 ar
   5        5        6 1
   6        6        7 2
   7        7        8 1
   8        8        9 1
   9        9       10 ar
  10       10       11 ar
  11       11       12 ar
  12       12       13 1
  13       12       14 ar
  14       14       15 ar
  15       15        9 ar
  16        8       16 1
  17       16       17 1
  18       17       18 2
  19       18       19 1
  20       19       20 2
  21       20       16 1
  22       20       21 1
  23       21        6 1
  24       21       22 1
  25       22       23 1
  26       23       24 2
  27       23       25 1
  28       25       26 2
  29       26       27 1
  30       27       28 1
  31       28       29 ar
  32       29       30 ar
  33       30       31 ar
  34       31       32 ar
  35       32       33 ar
  36       33       28 ar
  37       33       34 1
  38       34       26 1
  39        5       35 ar
  40       35       36 ar
  41       36        2 ar
  42        8       37 1
  43       27       38 1
  44       34       39 1
  45        1       40 1
  46        1       41 1
  47        1       42 1
  48        3       43 1
  49        4       44 1
  50        7       45 1
  51       10       46 1
  52       11       47 1
  53       13       48 1
  54       13       49 1
  55       13       50 1
  56       14       51 1
  57       15       52 1
  58       22       53 1
  59       22       54 1
  60       29       55 1
  61       30       56 1
  62       31       57 1
  63       32       58 1
  64       35       59 1
  65       36       60 1

@<TRIPOS>MOLECULE

  60   65
SMALL
USER_CHARGES
@<TRIPOS>ATOM
   1 C1           5.4281     1.8025    -4.1997 C.3          1    LIG   0.0000
   2 C2           4.2895     1.3943    -3.2802 C.ar         1    LIG   0.0000
   3 C3           2.9797     1.7089    -3.6257 C.ar         1    LIG   0.0000
   4 C4           1.9318     1.3384    -2.7893 C.ar         1    LIG   0.0000
   5 C5           2.2122     0.6547    -1.6108 C.ar         1    LIG   0.0000
   6 C6           1.1234     0.2661    -0.7360 C.2          1    LIG   0.0000
   7 C7           0.7587     1.1209     0.2008 C.2          1    LIG   0.0000
   8 C8          -0.3734     0.7265     1.1352 C.3          1    LIG   0.0000
   9 C9          -1.1281     1.9924     1.5063 C.ar         1    LIG   0.0000
  10 C10         -1.7109     2.0964     2.7650 C.ar         1    LIG   0.0000
  11 C11         -2.4015     3.2569     3.0986 C.ar         1    LIG   0.0000
  12 C12         -2.5021     4.2949     2.1791 C.ar         1    LIG   0.0000
  13 C13         -3.2583     5.5595     2.5546 C.3          1    LIG   0.0000
  14 C14         -1.9167     4.1814     0.9220 C.ar         1    LIG   0.0000
  15 C15         -1.2235     3.0252     0.5794 C.ar         1    LIG   0.0000
  16 N16         -1.2789    -0.2535     0.5157 N.pl3        1    LIG   0.0000
  17 N17         -2.5472    -0.4998     0.7548 N.2          1    LIG   0.0000
  18 N18         -2.9556    -1.4311    -0.0003 N.2          1    LIG   0.0000
  19 N19         -1.9548    -1.8233    -0.7601 N.2          1    LIG   0.0000
  20 C20         -0.8909    -1.1052    -0.4552 C.2          1    LIG   0.0000
  21 N21          0.4607    -0.9661    -0.8509 N.pl3        1    LIG   0.0000
  22 C22          1.2162    -2.1089    -1.3859 C.3          1    LIG   0.0000
  23 C23          1.8914    -2.8496    -0.2432 C.2          1    LIG   0.0000
  24 O24          3.0864    -2.9577    -0.2212 O.2          1    LIG   0.0000
  25 N25          1.1359    -3.3937     0.7618 N.2          1    LIG   0.0000
  26 C26          1.6407    -3.2574     1.9197 C.2          1    LIG   0.0000
  27 N27          1.3802    -4.0552     2.9919 N.pl3        1    LIG   0.0000
  28 C28          2.1148    -3.5780     4.0366 C.ar         1    LIG   0.0000
  29 C29          2.2170    -4.0190     5.3503 C.ar         1    LIG   0.0000
  30 C30          3.0507    -3.3561     6.2452 C.ar         1    LIG   0.0000
  31 C31          3.7790    -2.2497     5.8194 C.ar         1    LIG   0.0000
  32 C32          3.6600    -1.8227     4.5006 C.ar         1    LIG   0.0000
  33 C33          2.8268    -2.4836     3.6032 C.ar         1    LIG   0.0000
  34 N34          2.5295    -2.2894     2.2856 N.pl3        1    LIG   0.0000
  35 C35          3.5196     0.3368    -1.2569 C.ar         1    LIG   0.0000
  36 C36          4.5612     0.7110    -2.0989 C.ar         1    LIG   0.0000
  37 H            0.0163     0.3273     1.9651 H            1    LIG   0.0000
  38 H            0.7652    -4.8435     3.0097 H            1    LIG   0.0000
  39 H            2.8960    -1.5694     1.6963 H            1    LIG   0.0000
  40 H            6.2975     1.5024    -3.8071 H            1    LIG   0.0000
  41 H            5.3021     1.3764    -5.0956 H            1    LIG   0.0000
  42 H            5.4340     2.7972    -4.3016 H            1    LIG   0.0000
  43 H            2.7912     2.2015    -4.4753 H            1    LIG   0.0000
  44 H            0.9877     1.5611    -3.0324 H            1    LIG   0.0000
  45 H            1.2155     2.0056     0.2935 H            1    LIG   0.0000
  46 H           -1.6343     1.3463     3.4218 H            1    LIG   0.0000
  47 H           -2.8257     3.3446     3.9999 H            1    LIG   0.0000
  48 H           -3.2364     6.2011     1.7878 H            1    LIG   0.0000
  49 H           -4.2074     5.3291     2.7693 H            1    LIG   0.0000
  50 H           -2.8285     5.9802     3.3535 H            1    LIG   0.0000
  51 H           -1.9943     4.9311     0.2647 H            1    LIG   0.0000
  52 H           -0.7992     2.9375    -0.3219 H            1    LIG   0.0000
  53 H            1.9104    -1.7794    -2.0259 H            1    LIG   0.0000
  54 H            0.5915    -2.7282    -1.8616 H            1    LIG   0.0000
  55 H            1.6908    -4.8138     5.6528 H            1    LIG   0.0000
  56 H            3.1263    -3.6735     7.1905 H            1    LIG   0.0000
  57 H            4.3815    -1.7665     6.4546 H            1    LIG   0.0000
  58 H            4.1821    -1.0274     4.1924 H            1    LIG   0.0000
  59 H            3.7082    -0.1551    -0.4069 H            1    LIG   0.0000
  60 H            5.5054     0.4891    -1.8554 H            1    LIG   0.0000
@<TRIPOS>BOND
   1        1        2 1
   2        2        3 ar
   3        3        4 ar
   4        4        5 ar
   5        5        6 1
   6        6        7 2
   7        7        8 1
   8        8        9 1
   9        9       10 ar
  10       10       11 ar
  11       11       12 ar
  12       12       13 1
  13       12       14 ar
  14       14       15 ar
  15       15        9 ar
  16        8       16 1
  17       16       17 1
  18       17       18 2
  19       18       19 1
  20       19       20 2
  21       20       16 1
  22       20       21 1
  23       21        6 1
  24       21       22 1
  25       22       23 1
  26       23       24 2
  27       23       25 1
  28       25       26 2
  29       26       27 1
  30       27       28 1
  31       28       29 ar
  32       29       30 ar
  33       30       31 ar
  34       31       32 ar
  35       32       33 ar
  36       33       28 ar
  37       33       34 1
  38       34       26 1
  39        5       35 ar
  40       35       36 ar
  41       36        2 ar
  42        8       37 1
  43       27       38 1
  44       34       39 1
  45        1       40 1
  46        1       41 1
  47        1       42 1
  48        3       43 1
  49        4       44 1
  50        7       45 1
  51       10       46 1
  52       11       47 1
  53       13       48 1
  54       13       49 1
  55       13       50 1
  56       14       51 1
  57       15       52 1
  58       22       53 1
  59       22       54 1
  60       29       55 1
  61       30       56 1
  62       31       57 1
  63       32       58 1
  64       35       59 1
  65       36       60 1

@<TRIPOS>MOLECULE

  60   65
SMALL
USER_CHARGES
@<TRIPOS>ATOM
   1 C1           4.9580     4.8524     1.3914 C.3          1    LIG   0.0000
   2 C2           3.8988     3.8160     1.0563 C.ar         1    LIG   0.0000
   3 C3           4.1101     2.4831     1.3920 C.ar         1    LIG   0.0000
   4 C4           3.1451     1.5282     1.0889 C.ar         1    LIG   0.0000
   5 C5           1.9751     1.9240     0.4489 C.ar         1    LIG   0.0000
   6 C6           0.9662     0.9326     0.1312 C.2          1    LIG   0.0000
   7 C7          -0.3038     1.2976     0.0987 C.2          1    LIG   0.0000
   8 C8          -1.3691     0.2693    -0.2614 C.3          1    LIG   0.0000
   9 C9          -1.6674     0.4066    -1.7453 C.ar         1    LIG   0.0000
  10 C10         -2.9510     0.1429    -2.2116 C.ar         1    LIG   0.0000
  11 C11         -3.2178     0.2688    -3.5711 C.ar         1    LIG   0.0000
  12 C12         -2.2078     0.6548    -4.4450 C.ar         1    LIG   0.0000
  13 C13         -2.5105     0.7906    -5.9290 C.3          1    LIG   0.0000
  14 C14         -0.9264     0.9155    -3.9695 C.ar         1    LIG   0.0000
  15 C15         -0.6501     0.7929    -2.6118 C.ar         1    LIG   0.0000
  16 N16         -0.9259    -1.0985     0.0591 N.pl3        1    LIG   0.0000
  17 N17         -1.6132    -2.1867     0.3371 N.2          1    LIG   0.0000
  18 N18         -0.8338    -3.1654     0.5144 N.2          1    LIG   0.0000
  19 N19          0.4011    -2.7382     0.3705 N.2          1    LIG   0.0000
  20 C20          0.3796    -1.4460     0.1022 C.2          1    LIG   0.0000
  21 N21          1.2862    -0.4033    -0.1516 N.pl3        1    LIG   0.0000
  22 C22          2.6035    -0.6999    -0.7337 C.3          1    LIG   0.0000
  23 C23          2.5091    -0.6549    -2.2501 C.2          1    LIG   0.0000
  24 O24          1.4615    -0.4039    -2.7789 O.2          1    LIG   0.0000
  25 N25          3.6200    -0.9009    -3.0132 N.2          1    LIG   0.0000
  26 C26          4.6656    -1.1537    -2.3372 C.2          1    LIG   0.0000
  27 N27          4.9259    -2.3271    -1.6975 N.pl3        1    LIG   0.0000
  28 C28          6.1407    -2.1951    -1.0929 C.ar         1    LIG   0.0000
  29 C29          6.8696    -3.0877    -0.3164 C.ar         1    LIG   0.0000
  30 C30          8.1084    -2.7157     0.1956 C.ar         1    LIG   0.0000
  31 C31          8.6123    -1.4467    -0.0715 C.ar         1    LIG   0.0000
  32 C32          7.8652    -0.5671    -0.8488 C.ar         1    LIG   0.0000
  33 C33          6.6256    -0.9363    -1.3621 C.ar         1    LIG   0.0000
  34 N34          5.7051    -0.2933    -2.1376 N.pl3        1    LIG   0.0000
  35 C35          1.7559     3.2551     0.1085 C.ar         1    LIG   0.0000
  36 C36          2.7260     4.2031     0.4153 C.ar         1    LIG   0.0000
  37 H           -2.2010     0.4699     0.2561 H            1    LIG   0.0000
  38 H            4.3363    -3.1346    -1.6753 H            1    LIG   0.0000
  39 H            5.7790     0.6381    -2.4941 H            1    LIG   0.0000
  40 H            4.6514     5.7535     1.0847 H            1    LIG   0.0000
  41 H            5.1065     4.8696     2.3801 H            1    LIG   0.0000
  42 H            5.8131     4.6164     0.9299 H            1    LIG   0.0000
  43 H            4.9557     2.2110     1.8512 H            1    LIG   0.0000
  44 H            3.2907     0.5683     1.3283 H            1    LIG   0.0000
  45 H           -0.5632     2.2403     0.3087 H            1    LIG   0.0000
  46 H           -3.6730    -0.1338    -1.5775 H            1    LIG   0.0000
  47 H           -4.1362     0.0817    -3.9198 H            1    LIG   0.0000
  48 H           -1.6828     1.0735    -6.4135 H            1    LIG   0.0000
  49 H           -2.8223    -0.0893    -6.2874 H            1    LIG   0.0000
  50 H           -3.2256     1.4769    -6.0618 H            1    LIG   0.0000
  51 H           -0.2041     1.1911    -4.6038 H            1    LIG   0.0000
  52 H            0.2682     0.9802    -2.2631 H            1    LIG   0.0000
  53 H            2.8980    -1.6108    -0.4449 H            1    LIG   0.0000
  54 H            3.2669    -0.0202    -0.4207 H            1    LIG   0.0000
  55 H            6.5032    -3.9984    -0.1254 H            1    LIG   0.0000
  56 H            8.6345    -3.3577     0.7533 H            1    LIG   0.0000
  57 H            9.5020    -1.1696     0.2913 H            1    LIG   0.0000
  58 H            8.2251     0.3457    -1.0417 H            1    LIG   0.0000
  59 H            0.9106     3.5270    -0.3514 H            1    LIG   0.0000
  60 H            2.5808     5.1629     0.1752 H            1    LIG   0.0000
@<TRIPOS>BOND
   1        1        2 1
   2        2        3 ar
   3        3        4 ar
   4        4        5 ar
   5        5        6 1
   6        6        7 2
   7        7        8 1
   8        8        9 1
   9        9       10 ar
  10       10       11 ar
  11       11       12 ar
  12       12       13 1
  13       12       14 ar
  14       14       15 ar
  15       15        9 ar
  16        8       16 1
  17       16       17 1
  18       17       18 2
  19       18       19 1
  20       19       20 2
  21       20       16 1
  22       20       21 1
  23       21        6 1
  24       21       22 1
  25       22       23 1
  26       23       24 2
  27       23       25 1
  28       25       26 2
  29       26       27 1
  30       27       28 1
  31       28       29 ar
  32       29       30 ar
  33       30       31 ar
  34       31       32 ar
  35       32       33 ar
  36       33       28 ar
  37       33       34 1
  38       34       26 1
  39        5       35 ar
  40       35       36 ar
  41       36        2 ar
  42        8       37 1
  43       27       38 1
  44       34       39 1
  45        1       40 1
  46        1       41 1
  47        1       42 1
  48        3       43 1
  49        4       44 1
  50        7       45 1
  51       10       46 1
  52       11       47 1
  53       13       48 1
  54       13       49 1
  55       13       50 1
  56       14       51 1
  57       15       52 1
  58       22       53 1
  59       22       54 1
  60       29       55 1
  61       30       56 1
  62       31       57 1
  63       32       58 1
  64       35       59 1
  65       36       60 1

@<TRIPOS>MOLECULE

  60   65
SMALL
USER_CHARGES
@<TRIPOS>ATOM
   1 C1           4.9580     4.8524     1.3914 C.3          1    LIG   0.0000
   2 C2           3.8988     3.8160     1.0563 C.ar         1    LIG   0.0000
   3 C3           4.1101     2.4831     1.3920 C.ar         1    LIG   0.0000
   4 C4           3.1451     1.5282     1.0889 C.ar         1    LIG   0.0000
   5 C5           1.9751     1.9240     0.4489 C.ar         1    LIG   0.0000
   6 C6           0.9662     0.9326     0.1312 C.2          1    LIG   0.0000
   7 C7          -0.3038     1.2976     0.0987 C.2          1    LIG   0.0000
   8 C8          -1.3691     0.2693    -0.2614 C.3          1    LIG   0.0000
   9 C9          -1.6674     0.4066    -1.7453 C.ar         1    LIG   0.0000
  10 C10         -2.9510     0.1429    -2.2116 C.ar         1    LIG   0.0000
  11 C11         -3.2178     0.2688    -3.5711 C.ar         1    LIG   0.0000
  12 C12         -2.2078     0.6548    -4.4450 C.ar         1    LIG   0.0000
  13 C13         -2.5105     0.7906    -5.9290 C.3          1    LIG   0.0000
  14 C14         -0.9264     0.9155    -3.9695 C.ar         1    LIG   0.0000
  15 C15         -0.6501     0.7929    -2.6118 C.ar         1    LIG   0.0000
  16 N16         -0.9259    -1.0985     0.0591 N.pl3        1    LIG   0.0000
  17 N17         -1.6132    -2.1867     0.3371 N.2          1    LIG   0.0000
  18 N18         -0.8338    -3.1654     0.5144 N.2          1    LIG   0.0000
  19 N19          0.4011    -2.7382     0.3705 N.2          1    LIG   0.0000
  20 C20          0.3796    -1.4460     0.1022 C.2          1    LIG   0.0000
  21 N21          1.2862    -0.4033    -0.1516 N.pl3        1    LIG   0.0000
  22 C22          2.6035    -0.6999    -0.7337 C.3          1    LIG   0.0000
  23 C23          2.5091    -0.6549    -2.2501 C.2          1    LIG   0.0000
  24 O24          1.4615    -0.4039    -2.7789 O.2          1    LIG   0.0000
  25 N25          3.6200    -0.9009    -3.0132 N.2          1    LIG   0.0000
  26 C26          3.4124    -0.8337    -4.2648 C.2          1    LIG   0.0000
  27 N27          2.3065    -1.3019    -4.9064 N.pl3        1    LIG   0.0000
  28 C28          2.4694    -1.0379    -6.2341 C.ar         1    LIG   0.0000
  29 C29          1.6448    -1.3048    -7.3202 C.ar         1    LIG   0.0000
  30 C30          2.0359    -0.9290    -8.6012 C.ar         1    LIG   0.0000
  31 C31          3.2560    -0.2874    -8.7895 C.ar         1    LIG   0.0000
  32 C32          4.0682    -0.0322    -7.6889 C.ar         1    LIG   0.0000
  33 C33          3.6797    -0.4071    -6.4064 C.ar         1    LIG   0.0000
  34 N34          4.2614    -0.2812    -5.1784 N.pl3        1    LIG   0.0000
  35 C35          1.7559     3.2551     0.1085 C.ar         1    LIG   0.0000
  36 C36          2.7260     4.2031     0.4153 C.ar         1    LIG   0.0000
  37 H           -2.2010     0.4699     0.2561 H            1    LIG   0.0000
  38 H            1.5217    -1.7545    -4.4832 H            1    LIG   0.0000
  39 H            5.1477     0.1391    -4.9839 H            1    LIG   0.0000
  40 H            4.6514     5.7535     1.0847 H            1    LIG   0.0000
  41 H            5.1065     4.8696     2.3801 H            1    LIG   0.0000
  42 H            5.8131     4.6164     0.9299 H            1    LIG   0.0000
  43 H            4.9557     2.2110     1.8512 H            1    LIG   0.0000
  44 H            3.2907     0.5683     1.3283 H            1    LIG   0.0000
  45 H           -0.5632     2.2403     0.3087 H            1    LIG   0.0000
  46 H           -3.6730    -0.1338    -1.5775 H            1    LIG   0.0000
  47 H           -4.1362     0.0817    -3.9198 H            1    LIG   0.0000
  48 H           -1.6828     1.0735    -6.4135 H            1    LIG   0.0000
  49 H           -2.8223    -0.0893    -6.2874 H            1    LIG   0.0000
  50 H           -3.2256     1.4769    -6.0618 H            1    LIG   0.0000
  51 H           -0.2041     1.1911    -4.6038 H            1    LIG   0.0000
  52 H            0.2682     0.9802    -2.2631 H            1    LIG   0.0000
  53 H            2.8980    -1.6108    -0.4449 H            1    LIG   0.0000
  54 H            3.2669    -0.0202    -0.4207 H            1    LIG   0.0000
  55 H            0.7693    -1.7675    -7.1808 H            1    LIG   0.0000
  56 H            1.4427    -1.1192    -9.3834 H            1    LIG   0.0000
  57 H            3.5462    -0.0126    -9.7061 H            1    LIG   0.0000
  58 H            4.9458     0.4284    -7.8218 H            1    LIG   0.0000
  59 H            0.9106     3.5270    -0.3514 H            1    LIG   0.0000
  60 H            2.5808     5.1629     0.1752 H            1    LIG   0.0000
@<TRIPOS>BOND
   1        1        2 1
   2        2        3 ar
   3        3        4 ar
   4        4        5 ar
   5        5        6 1
   6        6        7 2
   7        7        8 1
   8        8        9 1
   9        9       10 ar
  10       10       11 ar
  11       11       12 ar
  12       12       13 1
  13       12       14 ar
  14       14       15 ar
  15       15        9 ar
  16        8       16 1
  17       16       17 1
  18       17       18 2
  19       18       19 1
  20       19       20 2
  21       20       16 1
  22       20       21 1
  23       21        6 1
  24       21       22 1
  25       22       23 1
  26       23       24 2
  27       23       25 1
  28       25       26 2
  29       26       27 1
  30       27       28 1
  31       28       29 ar
  32       29       30 ar
  33       30       31 ar
  34       31       32 ar
  35       32       33 ar
  36       33       28 ar
  37       33       34 1
  38       34       26 1
  39        5       35 ar
  40       35       36 ar
  41       36        2 ar
  42        8       37 1
  43       27       38 1
  44       34       39 1
  45        1       40 1
  46        1       41 1
  47        1       42 1
  48        3       43 1
  49        4       44 1
  50        7       45 1
  51       10       46 1
  52       11       47 1
  53       13       48 1
  54       13       49 1
  55       13       50 1
  56       14       51 1
  57       15       52 1
  58       22       53 1
  59       22       54 1
  60       29       55 1
  61       30       56 1
  62       31       57 1
  63       32       58 1
  64       35       59 1
  65       36       60 1

@<TRIPOS>MOLECULE

  60   65
SMALL
USER_CHARGES
@<TRIPOS>ATOM
   1 C1           4.9580     4.8524     1.3914 C.3          1    LIG   0.0000
   2 C2           3.8988     3.8160     1.0563 C.ar         1    LIG   0.0000
   3 C3           4.1101     2.4831     1.3920 C.ar         1    LIG   0.0000
   4 C4           3.1451     1.5282     1.0889 C.ar         1    LIG   0.0000
   5 C5           1.9751     1.9240     0.4489 C.ar         1    LIG   0.0000
   6 C6           0.9662     0.9326     0.1312 C.2          1    LIG   0.0000
   7 C7          -0.3038     1.2976     0.0987 C.2          1    LIG   0.0000
   8 C8          -1.3691     0.2693    -0.2614 C.3          1    LIG   0.0000
   9 C9          -1.6674     0.4066    -1.7453 C.ar         1    LIG   0.0000
  10 C10         -2.9510     0.1429    -2.2116 C.ar         1    LIG   0.0000
  11 C11         -3.2178     0.2688    -3.5711 C.ar         1    LIG   0.0000
  12 C12         -2.2078     0.6548    -4.4450 C.ar         1    LIG   0.0000
  13 C13         -2.5105     0.7906    -5.9290 C.3          1    LIG   0.0000
  14 C14         -0.9264     0.9155    -3.9695 C.ar         1    LIG   0.0000
  15 C15         -0.6501     0.7929    -2.6118 C.ar         1    LIG   0.0000
  16 N16         -0.9259    -1.0985     0.0591 N.pl3        1    LIG   0.0000
  17 N17         -1.6132    -2.1867     0.3371 N.2          1    LIG   0.0000
  18 N18         -0.8338    -3.1654     0.5144 N.2          1    LIG   0.0000
  19 N19          0.4011    -2.7382     0.3705 N.2          1    LIG   0.0000
  20 C20          0.3796    -1.4460     0.1022 C.2          1    LIG   0.0000
  21 N21          1.2862    -0.4033    -0.1516 N.pl3        1    LIG   0.0000
  22 C22          2.6035    -0.6999    -0.7337 C.3          1    LIG   0.0000
  23 C23          2.5091    -0.6549    -2.2501 C.2          1    LIG   0.0000
  24 O24          2.1700     0.3561    -2.8004 O.2          1    LIG   0.0000
  25 N25          2.8112    -1.7686    -2.9886 N.2          1    LIG   0.0000
  26 C26          1.8168    -2.5283    -3.2082 C.2          1    LIG   0.0000
  27 N27          0.5096    -2.1517    -3.1514 N.pl3        1    LIG   0.0000
  28 C28         -0.2394    -3.2512    -3.4493 C.ar         1    LIG   0.0000
  29 C29         -1.6168    -3.4163    -3.5296 C.ar         1    LIG   0.0000
  30 C30         -2.1520    -4.6572    -3.8600 C.ar         1    LIG   0.0000
  31 C31         -1.3025    -5.7310    -4.1073 C.ar         1    LIG   0.0000
  32 C32          0.0736    -5.5451    -4.0188 C.ar         1    LIG   0.0000
  33 C33          0.6118    -4.3052    -3.6883 C.ar         1    LIG   0.0000
  34 N34          1.8894    -3.8498    -3.5385 N.pl3        1    LIG   0.0000
  35 C35          1.7559     3.2551     0.1085 C.ar         1    LIG   0.0000
  36 C36          2.7260     4.2031     0.4153 C.ar         1    LIG   0.0000
  37 H           -2.2010     0.4699     0.2561 H            1    LIG   0.0000
  38 H            0.1637    -1.2394    -2.9322 H            1    LIG   0.0000
  39 H            2.7257    -4.3866    -3.6503 H            1    LIG   0.0000
  40 H            4.6514     5.7535     1.0847 H            1    LIG   0.0000
  41 H            5.1065     4.8696     2.3801 H            1    LIG   0.0000
  42 H            5.8131     4.6164     0.9299 H            1    LIG   0.0000
  43 H            4.9557     2.2110     1.8512 H            1    LIG   0.0000
  44 H            3.2907     0.5683     1.3283 H            1    LIG   0.0000
  45 H           -0.5632     2.2403     0.3087 H            1    LIG   0.0000
  46 H           -3.6730    -0.1338    -1.5775 H            1    LIG   0.0000
  47 H           -4.1362     0.0817    -3.9198 H            1    LIG   0.0000
  48 H           -1.6828     1.0735    -6.4135 H            1    LIG   0.0000
  49 H           -2.8223    -0.0893    -6.2874 H            1    LIG   0.0000
  50 H           -3.2256     1.4769    -6.0618 H            1    LIG   0.0000
  51 H           -0.2041     1.1911    -4.6038 H            1    LIG   0.0000
  52 H            0.2682     0.9802    -2.2631 H            1    LIG   0.0000
  53 H            2.8980    -1.6108    -0.4449 H            1    LIG   0.0000
  54 H            3.2669    -0.0202    -0.4207 H            1    LIG   0.0000
  55 H           -2.2240    -2.6424    -3.3496 H            1    LIG   0.0000
  56 H           -3.1430    -4.7768    -3.9196 H            1    LIG   0.0000
  57 H           -1.6770    -6.6269    -4.3462 H            1    LIG   0.0000
  58 H            0.6861    -6.3155    -4.1956 H            1    LIG   0.0000
  59 H            0.9106     3.5270    -0.3514 H            1    LIG   0.0000
  60 H            2.5808     5.1629     0.1752 H            1    LIG   0.0000
@<TRIPOS>BOND
   1        1        2 1
   2        2        3 ar
   3        3        4 ar
   4        4        5 ar
   5        5        6 1
   6        6        7 2
   7        7        8 1
   8        8        9 1
   9        9       10 ar
  10       10       11 ar
  11       11       12 ar
  12       12       13 1
  13       12       14 ar
  14       14       15 ar
  15       15        9 ar
  16        8       16 1
  17       16       17 1
  18       17       18 2
  19       18       19 1
  20       19       20 2
  21       20       16 1
  22       20       21 1
  23       21        6 1
  24       21       22 1
  25       22       23 1
  26       23       24 2
  27       23       25 1
  28       25       26 2
  29       26       27 1
  30       27       28 1
  31       28       29 ar
  32       29       30 ar
  33       30       31 ar
  34       31       32 ar
  35       32       33 ar
  36       33       28 ar
  37       33       34 1
  38       34       26 1
  39        5       35 ar
  40       35       36 ar
  41       36        2 ar
  42        8       37 1
  43       27       38 1
  44       34       39 1
  45        1       40 1
  46        1       41 1
  47        1       42 1
  48        3       43 1
  49        4       44 1
  50        7       45 1
  51       10       46 1
  52       11       47 1
  53       13       48 1
  54       13       49 1
  55       13       50 1
  56       14       51 1
  57       15       52 1
  58       22       53 1
  59       22       54 1
  60       29       55 1
  61       30       56 1
  62       31       57 1
  63       32       58 1
  64       35       59 1
  65       36       60 1

@<TRIPOS>MOLECULE

  60   65
SMALL
USER_CHARGES
@<TRIPOS>ATOM
   1 C1           4.9580     4.8524     1.3914 C.3          1    LIG   0.0000
   2 C2           3.8988     3.8160     1.0563 C.ar         1    LIG   0.0000
   3 C3           4.1101     2.4831     1.3920 C.ar         1    LIG   0.0000
   4 C4           3.1451     1.5282     1.0889 C.ar         1    LIG   0.0000
   5 C5           1.9751     1.9240     0.4489 C.ar         1    LIG   0.0000
   6 C6           0.9662     0.9326     0.1312 C.2          1    LIG   0.0000
   7 C7          -0.3038     1.2976     0.0987 C.2          1    LIG   0.0000
   8 C8          -1.3691     0.2693    -0.2614 C.3          1    LIG   0.0000
   9 C9          -1.6674     0.4066    -1.7453 C.ar         1    LIG   0.0000
  10 C10         -2.9510     0.1429    -2.2116 C.ar         1    LIG   0.0000
  11 C11         -3.2178     0.2688    -3.5711 C.ar         1    LIG   0.0000
  12 C12         -2.2078     0.6548    -4.4450 C.ar         1    LIG   0.0000
  13 C13         -2.5105     0.7906    -5.9290 C.3          1    LIG   0.0000
  14 C14         -0.9264     0.9155    -3.9695 C.ar         1    LIG   0.0000
  15 C15         -0.6501     0.7929    -2.6118 C.ar         1    LIG   0.0000
  16 N16         -0.9259    -1.0985     0.0591 N.pl3        1    LIG   0.0000
  17 N17         -1.6132    -2.1867     0.3371 N.2          1    LIG   0.0000
  18 N18         -0.8338    -3.1654     0.5144 N.2          1    LIG   0.0000
  19 N19          0.4011    -2.7382     0.3705 N.2          1    LIG   0.0000
  20 C20          0.3796    -1.4460     0.1022 C.2          1    LIG   0.0000
  21 N21          1.2862    -0.4033    -0.1516 N.pl3        1    LIG   0.0000
  22 C22          2.6035    -0.6999    -0.7337 C.3          1    LIG   0.0000
  23 C23          2.5091    -0.6549    -2.2501 C.2          1    LIG   0.0000
  24 O24          1.7634    -1.3972    -2.8271 O.2          1    LIG   0.0000
  25 N25          3.2754     0.2331    -2.9581 N.2          1    LIG   0.0000
  26 C26          2.7183     1.3588    -3.1490 C.2          1    LIG   0.0000
  27 N27          2.1863     1.7850    -4.3277 N.pl3        1    LIG   0.0000
  28 C28          1.6899     3.0370    -4.1159 C.ar         1    LIG   0.0000
  29 C29          1.0483     3.9168    -4.9793 C.ar         1    LIG   0.0000
  30 C30          0.6245     5.1595    -4.5197 C.ar         1    LIG   0.0000
  31 C31          0.8476     5.5174    -3.1938 C.ar         1    LIG   0.0000
  32 C32          1.4943     4.6230    -2.3466 C.ar         1    LIG   0.0000
  33 C33          1.9196     3.3794    -2.8035 C.ar         1    LIG   0.0000
  34 N34          2.5581     2.3316    -2.2063 N.pl3        1    LIG   0.0000
  35 C35          1.7559     3.2551     0.1085 C.ar         1    LIG   0.0000
  36 C36          2.7260     4.2031     0.4153 C.ar         1    LIG   0.0000
  37 H           -2.2010     0.4699     0.2561 H            1    LIG   0.0000
  38 H            2.1638     1.2752    -5.1877 H            1    LIG   0.0000
  39 H            2.8544     2.2855    -1.2523 H            1    LIG   0.0000
  40 H            4.6514     5.7535     1.0847 H            1    LIG   0.0000
  41 H            5.1065     4.8696     2.3801 H            1    LIG   0.0000
  42 H            5.8131     4.6164     0.9299 H            1    LIG   0.0000
  43 H            4.9557     2.2110     1.8512 H            1    LIG   0.0000
  44 H            3.2907     0.5683     1.3283 H            1    LIG   0.0000
  45 H           -0.5632     2.2403     0.3087 H            1    LIG   0.0000
  46 H           -3.6730    -0.1338    -1.5775 H            1    LIG   0.0000
  47 H           -4.1362     0.0817    -3.9198 H            1    LIG   0.0000
  48 H           -1.6828     1.0735    -6.4135 H            1    LIG   0.0000
  49 H           -2.8223    -0.0893    -6.2874 H            1    LIG   0.0000
  50 H           -3.2256     1.4769    -6.0618 H            1    LIG   0.0000
  51 H           -0.2041     1.1911    -4.6038 H            1    LIG   0.0000
  52 H            0.2682     0.9802    -2.2631 H            1    LIG   0.0000
  53 H            2.8980    -1.6108    -0.4449 H            1    LIG   0.0000
  54 H            3.2669    -0.0202    -0.4207 H            1    LIG   0.0000
  55 H            0.8912     3.6564    -5.9319 H            1    LIG   0.0000
  56 H            0.1613     5.7929    -5.1396 H            1    LIG   0.0000
  57 H            0.5463     6.4081    -2.8533 H            1    LIG   0.0000
  58 H            1.6562     4.8783    -1.3934 H            1    LIG   0.0000
  59 H            0.9106     3.5270    -0.3514 H            1    LIG   0.0000
  60 H            2.5808     5.1629     0.1752 H            1    LIG   0.0000
@<TRIPOS>BOND
   1        1        2 1
   2        2        3 ar
   3        3        4 ar
   4        4        5 ar
   5        5        6 1
   6        6        7 2
   7        7        8 1
   8        8        9 1
   9        9       10 ar
  10       10       11 ar
  11       11       12 ar
  12       12       13 1
  13       12       14 ar
  14       14       15 ar
  15       15        9 ar
  16        8       16 1
  17       16       17 1
  18       17       18 2
  19       18       19 1
  20       19       20 2
  21       20       16 1
  22       20       21 1
  23       21        6 1
  24       21       22 1
  25       22       23 1
  26       23       24 2
  27       23       25 1
  28       25       26 2
  29       26       27 1
  30       27       28 1
  31       28       29 ar
  32       29       30 ar
  33       30       31 ar
  34       31       32 ar
  35       32       33 ar
  36       33       28 ar
  37       33       34 1
  38       34       26 1
  39        5       35 ar
  40       35       36 ar
  41       36        2 ar
  42        8       37 1
  43       27       38 1
  44       34       39 1
  45        1       40 1
  46        1       41 1
  47        1       42 1
  48        3       43 1
  49        4       44 1
  50        7       45 1
  51       10       46 1
  52       11       47 1
  53       13       48 1
  54       13       49 1
  55       13       50 1
  56       14       51 1
  57       15       52 1
  58       22       53 1
  59       22       54 1
  60       29       55 1
  61       30       56 1
  62       31       57 1
  63       32       58 1
  64       35       59 1
  65       36       60 1

@<TRIPOS>MOLECULE

  60   65
SMALL
USER_CHARGES
@<TRIPOS>ATOM
   1 C1           3.8421     3.2459     4.8836 C.3          1    LIG   0.0000
   2 C2           2.9851     2.5491     3.8403 C.ar         1    LIG   0.0000
   3 C3           1.6130     2.7746     3.8149 C.ar         1    LIG   0.0000
   4 C4           0.8216     2.1407     2.8627 C.ar         1    LIG   0.0000
   5 C5           1.4190     1.2837     1.9442 C.ar         1    LIG   0.0000
   6 C6           0.5985     0.6210     0.9496 C.2          1    LIG   0.0000
   7 C7           0.0555    -0.5612     1.1923 C.2          1    LIG   0.0000
   8 C8          -0.8340    -1.2695     0.1791 C.3          1    LIG   0.0000
   9 C9          -2.2979    -1.1142     0.5566 C.ar         1    LIG   0.0000
  10 C10         -2.7304    -1.5426     1.8072 C.ar         1    LIG   0.0000
  11 C11         -4.0718    -1.3992     2.1466 C.ar         1    LIG   0.0000
  12 C12         -4.9615    -0.8329     1.2408 C.ar         1    LIG   0.0000
  13 C13         -6.4254    -0.6798     1.6225 C.3          1    LIG   0.0000
  14 C14         -4.5199    -0.4082    -0.0085 C.ar         1    LIG   0.0000
  15 C15         -3.1805    -0.5468    -0.3568 C.ar         1    LIG   0.0000
  16 N16         -0.5231    -0.7724    -1.1742 N.pl3        1    LIG   0.0000
  17 N17         -0.7050    -1.2973    -2.3661 N.2          1    LIG   0.0000
  18 N18         -0.2715    -0.5335    -3.2755 N.2          1    LIG   0.0000
  19 N19          0.2110     0.5474    -2.7061 N.2          1    LIG   0.0000
  20 C20          0.0595     0.4234    -1.4011 C.2          1    LIG   0.0000
  21 N21          0.3595     1.2258    -0.2915 N.pl3        1    LIG   0.0000
  22 C22          0.4150     2.6877    -0.4359 C.3          1    LIG   0.0000
  23 C23          1.6385     3.0701    -1.2528 C.2          1    LIG   0.0000
  24 O24          2.6773     2.4937    -1.0832 O.2          1    LIG   0.0000
  25 N25          1.5553     4.0727    -2.1827 N.2          1    LIG   0.0000
  26 C26          2.1897     3.8346    -3.2575 C.2          1    LIG   0.0000
  27 N27          1.9165     2.8222    -4.1261 N.pl3        1    LIG   0.0000
  28 C28          2.8188     2.9110    -5.1442 C.ar         1    LIG   0.0000
  29 C29          2.9838     2.1294    -6.2812 C.ar         1    LIG   0.0000
  30 C30          3.9936     2.4265    -7.1908 C.ar         1    LIG   0.0000
  31 C31          4.8376     3.5073    -6.9557 C.ar         1    LIG   0.0000
  32 C32          4.6573     4.2754    -5.8096 C.ar         1    LIG   0.0000
  33 C33          3.6482     3.9805    -4.8979 C.ar         1    LIG   0.0000
  34 N34          3.2517     4.5523    -3.7241 N.pl3        1    LIG   0.0000
  35 C35          2.7907     1.0515     1.9630 C.ar         1    LIG   0.0000
  36 C36          3.5743     1.6894     2.9184 C.ar         1    LIG   0.0000
  37 H           -0.6125    -2.2443     0.2057 H            1    LIG   0.0000
  38 H            1.1901     2.1412    -4.0343 H            1    LIG   0.0000
  39 H            3.6641     5.3512    -3.2862 H            1    LIG   0.0000
  40 H            4.7977     2.9767     4.7637 H            1    LIG   0.0000
  41 H            3.7588     4.2365     4.7758 H            1    LIG   0.0000
  42 H            3.5338     2.9829     5.7978 H            1    LIG   0.0000
  43 H            1.1954     3.3924     4.4812 H            1    LIG   0.0000
  44 H           -0.1655     2.2993     2.8387 H            1    LIG   0.0000
  45 H            0.2354    -1.0044     2.0705 H            1    LIG   0.0000
  46 H           -2.0850    -1.9487     2.4542 H            1    LIG   0.0000
  47 H           -4.3961    -1.7035     3.0423 H            1    LIG   0.0000
  48 H           -6.9250    -0.2585     0.8655 H            1    LIG   0.0000
  49 H           -6.8147    -1.5797     1.8188 H            1    LIG   0.0000
  50 H           -6.4994    -0.1003     2.4341 H            1    LIG   0.0000
  51 H           -5.1656    -0.0033    -0.6559 H            1    LIG   0.0000
  52 H           -2.8561    -0.2424    -1.2524 H            1    LIG   0.0000
  53 H            0.4729     3.1101     0.4687 H            1    LIG   0.0000
  54 H           -0.4100     3.0083    -0.9013 H            1    LIG   0.0000
  55 H            2.3760     1.3525    -6.4458 H            1    LIG   0.0000
  56 H            4.1123     1.8656    -8.0102 H            1    LIG   0.0000
  57 H            5.5662     3.7297    -7.6035 H            1    LIG   0.0000
  58 H            5.2630     5.0524    -5.6383 H            1    LIG   0.0000
  59 H            3.2082     0.4331     1.2971 H            1    LIG   0.0000
  60 H            4.5613     1.5302     2.9429 H            1    LIG   0.0000
@<TRIPOS>BOND
   1        1        2 1
   2        2        3 ar
   3        3        4 ar
   4        4        5 ar
   5        5        6 1
   6        6        7 2
   7        7        8 1
   8        8        9 1
   9        9       10 ar
  10       10       11 ar
  11       11       12 ar
  12       12       13 1
  13       12       14 ar
  14       14       15 ar
  15       15        9 ar
  16        8       16 1
  17       16       17 1
  18       17       18 2
  19       18       19 1
  20       19       20 2
  21       20       16 1
  22       20       21 1
  23       21        6 1
  24       21       22 1
  25       22       23 1
  26       23       24 2
  27       23       25 1
  28       25       26 2
  29       26       27 1
  30       27       28 1
  31       28       29 ar
  32       29       30 ar
  33       30       31 ar
  34       31       32 ar
  35       32       33 ar
  36       33       28 ar
  37       33       34 1
  38       34       26 1
  39        5       35 ar
  40       35       36 ar
  41       36        2 ar
  42        8       37 1
  43       27       38 1
  44       34       39 1
  45        1       40 1
  46        1       41 1
  47        1       42 1
  48        3       43 1
  49        4       44 1
  50        7       45 1
  51       10       46 1
  52       11       47 1
  53       13       48 1
  54       13       49 1
  55       13       50 1
  56       14       51 1
  57       15       52 1
  58       22       53 1
  59       22       54 1
  60       29       55 1
  61       30       56 1
  62       31       57 1
  63       32       58 1
  64       35       59 1
  65       36       60 1

@<TRIPOS>MOLECULE

  60   65
SMALL
USER_CHARGES
@<TRIPOS>ATOM
   1 C1           3.8421     3.2459     4.8836 C.3          1    LIG   0.0000
   2 C2           2.9851     2.5491     3.8403 C.ar         1    LIG   0.0000
   3 C3           1.6130     2.7746     3.8149 C.ar         1    LIG   0.0000
   4 C4           0.8216     2.1407     2.8627 C.ar         1    LIG   0.0000
   5 C5           1.4190     1.2837     1.9442 C.ar         1    LIG   0.0000
   6 C6           0.5985     0.6210     0.9496 C.2          1    LIG   0.0000
   7 C7           0.0555    -0.5612     1.1923 C.2          1    LIG   0.0000
   8 C8          -0.8340    -1.2695     0.1791 C.3          1    LIG   0.0000
   9 C9          -2.2979    -1.1142     0.5566 C.ar         1    LIG   0.0000
  10 C10         -2.7304    -1.5426     1.8072 C.ar         1    LIG   0.0000
  11 C11         -4.0718    -1.3992     2.1466 C.ar         1    LIG   0.0000
  12 C12         -4.9615    -0.8329     1.2408 C.ar         1    LIG   0.0000
  13 C13         -6.4254    -0.6798     1.6225 C.3          1    LIG   0.0000
  14 C14         -4.5199    -0.4082    -0.0085 C.ar         1    LIG   0.0000
  15 C15         -3.1805    -0.5468    -0.3568 C.ar         1    LIG   0.0000
  16 N16         -0.5231    -0.7724    -1.1742 N.pl3        1    LIG   0.0000
  17 N17         -0.7050    -1.2973    -2.3661 N.2          1    LIG   0.0000
  18 N18         -0.2715    -0.5335    -3.2755 N.2          1    LIG   0.0000
  19 N19          0.2110     0.5474    -2.7061 N.2          1    LIG   0.0000
  20 C20          0.0595     0.4234    -1.4011 C.2          1    LIG   0.0000
  21 N21          0.3595     1.2258    -0.2915 N.pl3        1    LIG   0.0000
  22 C22          0.4150     2.6877    -0.4359 C.3          1    LIG   0.0000
  23 C23          1.6385     3.0701    -1.2528 C.2          1    LIG   0.0000
  24 O24          2.6773     2.4937    -1.0832 O.2          1    LIG   0.0000
  25 N25          1.5553     4.0727    -2.1827 N.2          1    LIG   0.0000
  26 C26          0.5758     3.9549    -2.9833 C.2          1    LIG   0.0000
  27 N27         -0.7012     4.3540    -2.7303 N.pl3        1    LIG   0.0000
  28 C28         -1.4431     4.0529    -3.8338 C.ar         1    LIG   0.0000
  29 C29         -2.7932     4.2464    -4.1000 C.ar         1    LIG   0.0000
  30 C30         -3.3262     3.8505    -5.3224 C.ar         1    LIG   0.0000
  31 C31         -2.5025     3.2590    -6.2750 C.ar         1    LIG   0.0000
  32 C32         -1.1541     3.0718    -5.9874 C.ar         1    LIG   0.0000
  33 C33         -0.6181     3.4665    -4.7654 C.ar         1    LIG   0.0000
  34 N34          0.6366     3.4093    -4.2321 N.pl3        1    LIG   0.0000
  35 C35          2.7907     1.0515     1.9630 C.ar         1    LIG   0.0000
  36 C36          3.5743     1.6894     2.9184 C.ar         1    LIG   0.0000
  37 H           -0.6125    -2.2443     0.2057 H            1    LIG   0.0000
  38 H           -1.0328     4.7868    -1.8920 H            1    LIG   0.0000
  39 H            1.4514     3.0358    -4.6754 H            1    LIG   0.0000
  40 H            4.7977     2.9767     4.7637 H            1    LIG   0.0000
  41 H            3.7588     4.2365     4.7758 H            1    LIG   0.0000
  42 H            3.5338     2.9829     5.7978 H            1    LIG   0.0000
  43 H            1.1954     3.3924     4.4812 H            1    LIG   0.0000
  44 H           -0.1655     2.2993     2.8387 H            1    LIG   0.0000
  45 H            0.2354    -1.0044     2.0705 H            1    LIG   0.0000
  46 H           -2.0850    -1.9487     2.4542 H            1    LIG   0.0000
  47 H           -4.3961    -1.7035     3.0423 H            1    LIG   0.0000
  48 H           -6.9250    -0.2585     0.8655 H            1    LIG   0.0000
  49 H           -6.8147    -1.5797     1.8188 H            1    LIG   0.0000
  50 H           -6.4994    -0.1003     2.4341 H            1    LIG   0.0000
  51 H           -5.1656    -0.0033    -0.6559 H            1    LIG   0.0000
  52 H           -2.8561    -0.2424    -1.2524 H            1    LIG   0.0000
  53 H            0.4729     3.1101     0.4687 H            1    LIG   0.0000
  54 H           -0.4100     3.0083    -0.9013 H            1    LIG   0.0000
  55 H           -3.3821     4.6705    -3.4121 H            1    LIG   0.0000
  56 H           -4.2973     3.9905    -5.5157 H            1    LIG   0.0000
  57 H           -2.8757     2.9714    -7.1571 H            1    LIG   0.0000
  58 H           -0.5603     2.6464    -6.6703 H            1    LIG   0.0000
  59 H            3.2082     0.4331     1.2971 H            1    LIG   0.0000
  60 H            4.5613     1.5302     2.9429 H            1    LIG   0.0000
@<TRIPOS>BOND
   1        1        2 1
   2        2        3 ar
   3        3        4 ar
   4        4        5 ar
   5        5        6 1
   6        6        7 2
   7        7        8 1
   8        8        9 1
   9        9       10 ar
  10       10       11 ar
  11       11       12 ar
  12       12       13 1
  13       12       14 ar
  14       14       15 ar
  15       15        9 ar
  16        8       16 1
  17       16       17 1
  18       17       18 2
  19       18       19 1
  20       19       20 2
  21       20       16 1
  22       20       21 1
  23       21        6 1
  24       21       22 1
  25       22       23 1
  26       23       24 2
  27       23       25 1
  28       25       26 2
  29       26       27 1
  30       27       28 1
  31       28       29 ar
  32       29       30 ar
  33       30       31 ar
  34       31       32 ar
  35       32       33 ar
  36       33       28 ar
  37       33       34 1
  38       34       26 1
  39        5       35 ar
  40       35       36 ar
  41       36        2 ar
  42        8       37 1
  43       27       38 1
  44       34       39 1
  45        1       40 1
  46        1       41 1
  47        1       42 1
  48        3       43 1
  49        4       44 1
  50        7       45 1
  51       10       46 1
  52       11       47 1
  53       13       48 1
  54       13       49 1
  55       13       50 1
  56       14       51 1
  57       15       52 1
  58       22       53 1
  59       22       54 1
  60       29       55 1
  61       30       56 1
  62       31       57 1
  63       32       58 1
  64       35       59 1
  65       36       60 1

@<TRIPOS>MOLECULE

  60   65
SMALL
USER_CHARGES
@<TRIPOS>ATOM
   1 C1           3.8472     3.2422     4.8818 C.3          1    LIG   0.0000
   2 C2           2.9850     2.5465     3.8421 C.ar         1    LIG   0.0000
   3 C3           3.2285     2.7628     2.4901 C.ar         1    LIG   0.0000
   4 C4           2.4437     2.1293     1.5321 C.ar         1    LIG   0.0000
   5 C5           1.4190     1.2837     1.9442 C.ar         1    LIG   0.0000
   6 C6           0.5985     0.6210     0.9496 C.2          1    LIG   0.0000
   7 C7           0.0555    -0.5612     1.1923 C.2          1    LIG   0.0000
   8 C8          -0.8340    -1.2695     0.1791 C.3          1    LIG   0.0000
   9 C9          -2.2979    -1.1142     0.5566 C.ar         1    LIG   0.0000
  10 C10         -2.7304    -1.5426     1.8072 C.ar         1    LIG   0.0000
  11 C11         -4.0718    -1.3992     2.1466 C.ar         1    LIG   0.0000
  12 C12         -4.9615    -0.8329     1.2408 C.ar         1    LIG   0.0000
  13 C13         -6.4254    -0.6798     1.6225 C.3          1    LIG   0.0000
  14 C14         -4.5199    -0.4082    -0.0085 C.ar         1    LIG   0.0000
  15 C15         -3.1805    -0.5468    -0.3568 C.ar         1    LIG   0.0000
  16 N16         -0.5231    -0.7724    -1.1742 N.pl3        1    LIG   0.0000
  17 N17         -0.7050    -1.2973    -2.3661 N.2          1    LIG   0.0000
  18 N18         -0.2715    -0.5335    -3.2755 N.2          1    LIG   0.0000
  19 N19          0.2110     0.5474    -2.7061 N.2          1    LIG   0.0000
  20 C20          0.0595     0.4234    -1.4011 C.2          1    LIG   0.0000
  21 N21          0.3595     1.2258    -0.2915 N.pl3        1    LIG   0.0000
  22 C22          0.4150     2.6877    -0.4359 C.3          1    LIG   0.0000
  23 C23          1.6385     3.0701    -1.2528 C.2          1    LIG   0.0000
  24 O24          1.8673     4.2247    -1.4861 O.2          1    LIG   0.0000
  25 N25          2.4800     2.0964    -1.7228 N.2          1    LIG   0.0000
  26 C26          3.0072     1.3852    -0.8116 C.2          1    LIG   0.0000
  27 N27          2.4257     0.3063    -0.2184 N.pl3        1    LIG   0.0000
  28 C28          3.3115    -0.1743     0.6998 C.ar         1    LIG   0.0000
  29 C29          3.2190    -1.2518     1.5724 C.ar         1    LIG   0.0000
  30 C30          4.2757    -1.5495     2.4268 C.ar         1    LIG   0.0000
  31 C31          5.4231    -0.7629     2.4047 C.ar         1    LIG   0.0000
  32 C32          5.4944     0.3131     1.5254 C.ar         1    LIG   0.0000
  33 C33          4.4389     0.6134     0.6698 C.ar         1    LIG   0.0000
  34 N34          4.2451     1.5809    -0.2728 N.pl3        1    LIG   0.0000
  35 C35          1.1676     1.0625     3.2946 C.ar         1    LIG   0.0000
  36 C36          1.9571     1.6999     4.2456 C.ar         1    LIG   0.0000
  37 H           -0.6125    -2.2443     0.2057 H            1    LIG   0.0000
  38 H            1.5187    -0.0641    -0.4188 H            1    LIG   0.0000
  39 H            4.8919     2.3013    -0.5229 H            1    LIG   0.0000
  40 H            3.5418     2.9804     5.7973 H            1    LIG   0.0000
  41 H            4.8019     2.9711     4.7586 H            1    LIG   0.0000
  42 H            3.7655     4.2330     4.7737 H            1    LIG   0.0000
  43 H            3.9678     3.3736     2.2066 H            1    LIG   0.0000
  44 H            2.6143     2.2801     0.5584 H            1    LIG   0.0000
  45 H            0.2354    -1.0044     2.0705 H            1    LIG   0.0000
  46 H           -2.0850    -1.9487     2.4542 H            1    LIG   0.0000
  47 H           -4.3961    -1.7035     3.0423 H            1    LIG   0.0000
  48 H           -6.9250    -0.2585     0.8655 H            1    LIG   0.0000
  49 H           -6.8147    -1.5797     1.8188 H            1    LIG   0.0000
  50 H           -6.4994    -0.1003     2.4341 H            1    LIG   0.0000
  51 H           -5.1656    -0.0033    -0.6559 H            1    LIG   0.0000
  52 H           -2.8561    -0.2424    -1.2524 H            1    LIG   0.0000
  53 H            0.4729     3.1101     0.4687 H            1    LIG   0.0000
  54 H           -0.4100     3.0083    -0.9013 H            1    LIG   0.0000
  55 H            2.3919    -1.8137     1.5862 H            1    LIG   0.0000
  56 H            4.2109    -2.3255     3.0541 H            1    LIG   0.0000
  57 H            6.1886    -0.9687     3.0144 H            1    LIG   0.0000
  58 H            6.3179     0.8801     1.5081 H            1    LIG   0.0000
  59 H            0.4279     0.4522     3.5781 H            1    LIG   0.0000
  60 H            1.7860     1.5498     5.2193 H            1    LIG   0.0000
@<TRIPOS>BOND
   1        1        2 1
   2        2        3 ar
   3        3        4 ar
   4        4        5 ar
   5        5        6 1
   6        6        7 2
   7        7        8 1
   8        8        9 1
   9        9       10 ar
  10       10       11 ar
  11       11       12 ar
  12       12       13 1
  13       12       14 ar
  14       14       15 ar
  15       15        9 ar
  16        8       16 1
  17       16       17 1
  18       17       18 2
  19       18       19 1
  20       19       20 2
  21       20       16 1
  22       20       21 1
  23       21        6 1
  24       21       22 1
  25       22       23 1
  26       23       24 2
  27       23       25 1
  28       25       26 2
  29       26       27 1
  30       27       28 1
  31       28       29 ar
  32       29       30 ar
  33       30       31 ar
  34       31       32 ar
  35       32       33 ar
  36       33       28 ar
  37       33       34 1
  38       34       26 1
  39        5       35 ar
  40       35       36 ar
  41       36        2 ar
  42        8       37 1
  43       27       38 1
  44       34       39 1
  45        1       40 1
  46        1       41 1
  47        1       42 1
  48        3       43 1
  49        4       44 1
  50        7       45 1
  51       10       46 1
  52       11       47 1
  53       13       48 1
  54       13       49 1
  55       13       50 1
  56       14       51 1
  57       15       52 1
  58       22       53 1
  59       22       54 1
  60       29       55 1
  61       30       56 1
  62       31       57 1
  63       32       58 1
  64       35       59 1
  65       36       60 1

@<TRIPOS>MOLECULE

  60   65
SMALL
USER_CHARGES
@<TRIPOS>ATOM
   1 C1           3.8421     3.2459     4.8836 C.3          1    LIG   0.0000
   2 C2           2.9851     2.5491     3.8403 C.ar         1    LIG   0.0000
   3 C3           1.6130     2.7746     3.8149 C.ar         1    LIG   0.0000
   4 C4           0.8216     2.1407     2.8627 C.ar         1    LIG   0.0000
   5 C5           1.4190     1.2837     1.9442 C.ar         1    LIG   0.0000
   6 C6           0.5985     0.6210     0.9496 C.2          1    LIG   0.0000
   7 C7           0.0555    -0.5612     1.1923 C.2          1    LIG   0.0000
   8 C8          -0.8340    -1.2695     0.1791 C.3          1    LIG   0.0000
   9 C9          -2.2979    -1.1142     0.5566 C.ar         1    LIG   0.0000
  10 C10         -2.7304    -1.5426     1.8072 C.ar         1    LIG   0.0000
  11 C11         -4.0718    -1.3992     2.1466 C.ar         1    LIG   0.0000
  12 C12         -4.9615    -0.8329     1.2408 C.ar         1    LIG   0.0000
  13 C13         -6.4254    -0.6798     1.6225 C.3          1    LIG   0.0000
  14 C14         -4.5199    -0.4082    -0.0085 C.ar         1    LIG   0.0000
  15 C15         -3.1805    -0.5468    -0.3568 C.ar         1    LIG   0.0000
  16 N16         -0.5231    -0.7724    -1.1742 N.pl3        1    LIG   0.0000
  17 N17         -0.7050    -1.2973    -2.3661 N.2          1    LIG   0.0000
  18 N18         -0.2715    -0.5335    -3.2755 N.2          1    LIG   0.0000
  19 N19          0.2110     0.5474    -2.7061 N.2          1    LIG   0.0000
  20 C20          0.0595     0.4234    -1.4011 C.2          1    LIG   0.0000
  21 N21          0.3595     1.2258    -0.2915 N.pl3        1    LIG   0.0000
  22 C22          0.4150     2.6877    -0.4359 C.3          1    LIG   0.0000
  23 C23          1.8548     3.1559    -0.3005 C.2          1    LIG   0.0000
  24 O24          2.7295     2.3578    -0.1061 O.2          1    LIG   0.0000
  25 N25          2.1538     4.4891    -0.4005 N.2          1    LIG   0.0000
  26 C26          2.1203     5.1107     0.7070 C.2          1    LIG   0.0000
  27 N27          1.4081     4.7298     1.8032 N.pl3        1    LIG   0.0000
  28 C28          1.6390     5.6573     2.7755 C.ar         1    LIG   0.0000
  29 C29          1.1607     5.7458     4.0771 C.ar         1    LIG   0.0000
  30 C30          1.5497     6.8039     4.8922 C.ar         1    LIG   0.0000
  31 C31          2.4170     7.7729     4.3976 C.ar         1    LIG   0.0000
  32 C32          2.8820     7.6672     3.0905 C.ar         1    LIG   0.0000
  33 C33          2.4946     6.6100     2.2728 C.ar         1    LIG   0.0000
  34 N34          2.7920     6.2646     0.9866 N.pl3        1    LIG   0.0000
  35 C35          2.7907     1.0515     1.9630 C.ar         1    LIG   0.0000
  36 C36          3.5743     1.6894     2.9184 C.ar         1    LIG   0.0000
  37 H           -0.6125    -2.2443     0.2057 H            1    LIG   0.0000
  38 H            0.8248     3.9213     1.8807 H            1    LIG   0.0000
  39 H            3.3923     6.7656     0.3632 H            1    LIG   0.0000
  40 H            4.7977     2.9767     4.7637 H            1    LIG   0.0000
  41 H            3.7588     4.2365     4.7758 H            1    LIG   0.0000
  42 H            3.5338     2.9829     5.7978 H            1    LIG   0.0000
  43 H            1.1954     3.3924     4.4812 H            1    LIG   0.0000
  44 H           -0.1655     2.2993     2.8387 H            1    LIG   0.0000
  45 H            0.2354    -1.0044     2.0705 H            1    LIG   0.0000
  46 H           -2.0850    -1.9487     2.4542 H            1    LIG   0.0000
  47 H           -4.3961    -1.7035     3.0423 H            1    LIG   0.0000
  48 H           -6.9250    -0.2585     0.8655 H            1    LIG   0.0000
  49 H           -6.8147    -1.5797     1.8188 H            1    LIG   0.0000
  50 H           -6.4994    -0.1003     2.4341 H            1    LIG   0.0000
  51 H           -5.1656    -0.0033    -0.6559 H            1    LIG   0.0000
  52 H           -2.8561    -0.2424    -1.2524 H            1    LIG   0.0000
  53 H           -0.1426     3.1144     0.2762 H            1    LIG   0.0000
  54 H            0.0632     2.9474    -1.3352 H            1    LIG   0.0000
  55 H            0.5363     5.0481     4.4283 H            1    LIG   0.0000
  56 H            1.2073     6.8678     5.8296 H            1    LIG   0.0000
  57 H            2.7032     8.5372     4.9755 H            1    LIG   0.0000
  58 H            3.5051     8.3627     2.7327 H            1    LIG   0.0000
  59 H            3.2082     0.4331     1.2971 H            1    LIG   0.0000
  60 H            4.5613     1.5302     2.9429 H            1    LIG   0.0000
@<TRIPOS>BOND
   1        1        2 1
   2        2        3 ar
   3        3        4 ar
   4        4        5 ar
   5        5        6 1
   6        6        7 2
   7        7        8 1
   8        8        9 1
   9        9       10 ar
  10       10       11 ar
  11       11       12 ar
  12       12       13 1
  13       12       14 ar
  14       14       15 ar
  15       15        9 ar
  16        8       16 1
  17       16       17 1
  18       17       18 2
  19       18       19 1
  20       19       20 2
  21       20       16 1
  22       20       21 1
  23       21        6 1
  24       21       22 1
  25       22       23 1
  26       23       24 2
  27       23       25 1
  28       25       26 2
  29       26       27 1
  30       27       28 1
  31       28       29 ar
  32       29       30 ar
  33       30       31 ar
  34       31       32 ar
  35       32       33 ar
  36       33       28 ar
  37       33       34 1
  38       34       26 1
  39        5       35 ar
  40       35       36 ar
  41       36        2 ar
  42        8       37 1
  43       27       38 1
  44       34       39 1
  45        1       40 1
  46        1       41 1
  47        1       42 1
  48        3       43 1
  49        4       44 1
  50        7       45 1
  51       10       46 1
  52       11       47 1
  53       13       48 1
  54       13       49 1
  55       13       50 1
  56       14       51 1
  57       15       52 1
  58       22       53 1
  59       22       54 1
  60       29       55 1
  61       30       56 1
  62       31       57 1
  63       32       58 1
  64       35       59 1
  65       36       60 1

@<TRIPOS>MOLECULE

  60   65
SMALL
USER_CHARGES
@<TRIPOS>ATOM
   1 C1           3.8421     3.2459     4.8836 C.3          1    LIG   0.0000
   2 C2           2.9851     2.5491     3.8403 C.ar         1    LIG   0.0000
   3 C3           1.6130     2.7746     3.8149 C.ar         1    LIG   0.0000
   4 C4           0.8216     2.1407     2.8627 C.ar         1    LIG   0.0000
   5 C5           1.4190     1.2837     1.9442 C.ar         1    LIG   0.0000
   6 C6           0.5985     0.6210     0.9496 C.2          1    LIG   0.0000
   7 C7           0.0555    -0.5612     1.1923 C.2          1    LIG   0.0000
   8 C8          -0.8340    -1.2695     0.1791 C.3          1    LIG   0.0000
   9 C9          -2.2979    -1.1142     0.5566 C.ar         1    LIG   0.0000
  10 C10         -2.7304    -1.5426     1.8072 C.ar         1    LIG   0.0000
  11 C11         -4.0718    -1.3992     2.1466 C.ar         1    LIG   0.0000
  12 C12         -4.9615    -0.8329     1.2408 C.ar         1    LIG   0.0000
  13 C13         -6.4254    -0.6798     1.6225 C.3          1    LIG   0.0000
  14 C14         -4.5199    -0.4082    -0.0085 C.ar         1    LIG   0.0000
  15 C15         -3.1805    -0.5468    -0.3568 C.ar         1    LIG   0.0000
  16 N16         -0.5231    -0.7724    -1.1742 N.pl3        1    LIG   0.0000
  17 N17         -0.7050    -1.2973    -2.3661 N.2          1    LIG   0.0000
  18 N18         -0.2715    -0.5335    -3.2755 N.2          1    LIG   0.0000
  19 N19          0.2110     0.5474    -2.7061 N.2          1    LIG   0.0000
  20 C20          0.0595     0.4234    -1.4011 C.2          1    LIG   0.0000
  21 N21          0.3595     1.2258    -0.2915 N.pl3        1    LIG   0.0000
  22 C22          0.4150     2.6877    -0.4359 C.3          1    LIG   0.0000
  23 C23          1.8548     3.1559    -0.3005 C.2          1    LIG   0.0000
  24 O24          2.6897     2.7572    -1.0647 O.2          1    LIG   0.0000
  25 N25          2.1992     4.0331     0.6938 N.2          1    LIG   0.0000
  26 C26          3.4301     4.3477     0.7019 C.2          1    LIG   0.0000
  27 N27          4.4685     3.4671     0.7197 N.pl3        1    LIG   0.0000
  28 C28          5.6180     4.2002     0.7230 C.ar         1    LIG   0.0000
  29 C29          6.9488     3.8009     0.7398 C.ar         1    LIG   0.0000
  30 C30          7.9625     4.7537     0.7365 C.ar         1    LIG   0.0000
  31 C31          7.6375     6.1064     0.7186 C.ar         1    LIG   0.0000
  32 C32          6.2987     6.4850     0.7049 C.ar         1    LIG   0.0000
  33 C33          5.2826     5.5343     0.7082 C.ar         1    LIG   0.0000
  34 N34          3.9208     5.6205     0.6937 N.pl3        1    LIG   0.0000
  35 C35          2.7907     1.0515     1.9630 C.ar         1    LIG   0.0000
  36 C36          3.5743     1.6894     2.9184 C.ar         1    LIG   0.0000
  37 H           -0.6125    -2.2443     0.2057 H            1    LIG   0.0000
  38 H            4.4006     2.4695     0.7287 H            1    LIG   0.0000
  39 H            3.3814     6.4624     0.6796 H            1    LIG   0.0000
  40 H            4.7977     2.9767     4.7637 H            1    LIG   0.0000
  41 H            3.7588     4.2365     4.7758 H            1    LIG   0.0000
  42 H            3.5338     2.9829     5.7978 H            1    LIG   0.0000
  43 H            1.1954     3.3924     4.4812 H            1    LIG   0.0000
  44 H           -0.1655     2.2993     2.8387 H            1    LIG   0.0000
  45 H            0.2354    -1.0044     2.0705 H            1    LIG   0.0000
  46 H           -2.0850    -1.9487     2.4542 H            1    LIG   0.0000
  47 H           -4.3961    -1.7035     3.0423 H            1    LIG   0.0000
  48 H           -6.9250    -0.2585     0.8655 H            1    LIG   0.0000
  49 H           -6.8147    -1.5797     1.8188 H            1    LIG   0.0000
  50 H           -6.4994    -0.1003     2.4341 H            1    LIG   0.0000
  51 H           -5.1656    -0.0033    -0.6559 H            1    LIG   0.0000
  52 H           -2.8561    -0.2424    -1.2524 H            1    LIG   0.0000
  53 H           -0.1426     3.1144     0.2762 H            1    LIG   0.0000
  54 H            0.0632     2.9474    -1.3352 H            1    LIG   0.0000
  55 H            7.1782     2.8277     0.7542 H            1    LIG   0.0000
  56 H            8.9206     4.4676     0.7471 H            1    LIG   0.0000
  57 H            8.3586     6.7993     0.7155 H            1    LIG   0.0000
  58 H            6.0627     7.4567     0.6925 H            1    LIG   0.0000
  59 H            3.2082     0.4331     1.2971 H            1    LIG   0.0000
  60 H            4.5613     1.5302     2.9429 H            1    LIG   0.0000
@<TRIPOS>BOND
   1        1        2 1
   2        2        3 ar
   3        3        4 ar
   4        4        5 ar
   5        5        6 1
   6        6        7 2
   7        7        8 1
   8        8        9 1
   9        9       10 ar
  10       10       11 ar
  11       11       12 ar
  12       12       13 1
  13       12       14 ar
  14       14       15 ar
  15       15        9 ar
  16        8       16 1
  17       16       17 1
  18       17       18 2
  19       18       19 1
  20       19       20 2
  21       20       16 1
  22       20       21 1
  23       21        6 1
  24       21       22 1
  25       22       23 1
  26       23       24 2
  27       23       25 1
  28       25       26 2
  29       26       27 1
  30       27       28 1
  31       28       29 ar
  32       29       30 ar
  33       30       31 ar
  34       31       32 ar
  35       32       33 ar
  36       33       28 ar
  37       33       34 1
  38       34       26 1
  39        5       35 ar
  40       35       36 ar
  41       36        2 ar
  42        8       37 1
  43       27       38 1
  44       34       39 1
  45        1       40 1
  46        1       41 1
  47        1       42 1
  48        3       43 1
  49        4       44 1
  50        7       45 1
  51       10       46 1
  52       11       47 1
  53       13       48 1
  54       13       49 1
  55       13       50 1
  56       14       51 1
  57       15       52 1
  58       22       53 1
  59       22       54 1
  60       29       55 1
  61       30       56 1
  62       31       57 1
  63       32       58 1
  64       35       59 1
  65       36       60 1

