@<TRIPOS>MOLECULE
*****
 60 65 0 0 0
SMALL
USER_CHARGES

@<TRIPOS>ATOM
      1 C1          5.4303    1.7998   -4.1981 C.3     1  LIG1        0.0000
      2 C2          4.2904    1.3951   -3.2788 C.3     1  LIG1        0.0000
      3 C3          3.2918    0.5506   -3.7518 C.3     1  LIG1        0.0000
      4 C4          2.2450    0.1752   -2.9162 C.3     1  LIG1        0.0000
      5 C5          2.2122    0.6547   -1.6108 C.3     1  LIG1        0.0000
      6 C6          1.1234    0.2661   -0.7360 C.2     1  LIG1        0.0000
      7 C7          0.7587    1.1209    0.2008 C.2     1  LIG1        0.0000
      8 C8         -0.3734    0.7265    1.1352 C.3     1  LIG1        0.0000
      9 C9         -1.1281    1.9924    1.5063 C.3     1  LIG1        0.0000
     10 C10        -1.7109    2.0964    2.7650 C.3     1  LIG1        0.0000
     11 C11        -2.4015    3.2569    3.0986 C.3     1  LIG1        0.0000
     12 C12        -2.5021    4.2949    2.1791 C.3     1  LIG1        0.0000
     13 C13        -3.2583    5.5595    2.5546 C.3     1  LIG1        0.0000
     14 C14        -1.9167    4.1814    0.9220 C.3     1  LIG1        0.0000
     15 C15        -1.2235    3.0252    0.5794 C.3     1  LIG1        0.0000
     16 N16        -1.2789   -0.2535    0.5157 N.pl3   1  LIG1        0.0000
     17 N17        -2.5472   -0.4998    0.7548 N.2     1  LIG1        0.0000
     18 N18        -2.9556   -1.4311   -0.0003 N.2     1  LIG1        0.0000
     19 N19        -1.9548   -1.8233   -0.7601 N.2     1  LIG1        0.0000
     20 C20        -0.8909   -1.1052   -0.4552 C.cat   1  LIG1        0.0000
     21 N21         0.4607   -0.9661   -0.8509 N.pl3   1  LIG1        0.0000
     22 C22         1.2162   -2.1089   -1.3859 C.3     1  LIG1        0.0000
     23 C23         1.8914   -2.8496   -0.2432 C.2     1  LIG1        0.0000
     24 O24         1.3098   -3.0111    0.7939 O.2     1  LIG1        0.0000
     25 N25         3.1641   -3.3327   -0.3972 N.am    1  LIG1        0.0000
     26 C26         4.0729   -2.5120   -0.0586 C.2     1  LIG1        0.0000
     27 N27         5.2741   -2.8476    0.4879 N.pl3   1  LIG1        0.0000
     28 C28         5.9562   -1.6872    0.7041 C.3     1  LIG1        0.0000
     29 C29         7.2188   -1.4630    1.2394 C.3     1  LIG1        0.0000
     30 C30         7.7055   -0.1651    1.3575 C.3     1  LIG1        0.0000
     31 C31         6.9220    0.9059    0.9396 C.3     1  LIG1        0.0000
     32 C32         5.6594    0.6599    0.4091 C.3     1  LIG1        0.0000
     33 C33         5.1699   -0.6372    0.2899 C.3     1  LIG1        0.0000
     34 N34         4.0004   -1.1557   -0.1849 N.pl3   1  LIG1        0.0000
     35 C35         3.2064    1.5008   -1.1297 C.3     1  LIG1        0.0000
     36 C36         4.2492    1.8710   -1.9719 C.3     1  LIG1        0.0000
     37 H           0.0163    0.3273    1.9651 H       1  LIG1        0.0000
     38 H           5.5957   -3.7722    0.6923 H       1  LIG1        0.0000
     39 H           3.2311   -0.6366   -0.5573 H       1  LIG1        0.0000
     40 H           6.0567    2.4044   -3.7061 H       1  LIG1        0.0000
     41 H           5.9225    0.9828   -4.4983 H       1  LIG1        0.0000
     42 H           5.0619    2.2786   -4.9950 H       1  LIG1        0.0000
     43 H           3.3263    0.2132   -4.6925 H       1  LIG1        0.0000
     44 H           1.5243   -0.4323   -3.2500 H       1  LIG1        0.0000
     45 H           1.2155    2.0056    0.2935 H       1  LIG1        0.0000
     46 H          -1.6343    1.3463    3.4218 H       1  LIG1        0.0000
     47 H          -2.8257    3.3446    3.9999 H       1  LIG1        0.0000
     48 H          -3.2364    6.2011    1.7878 H       1  LIG1        0.0000
     49 H          -4.2074    5.3291    2.7693 H       1  LIG1        0.0000
     50 H          -2.8285    5.9802    3.3535 H       1  LIG1        0.0000
     51 H          -1.9943    4.9311    0.2647 H       1  LIG1        0.0000
     52 H          -0.7992    2.9375   -0.3219 H       1  LIG1        0.0000
     53 H           1.9104   -1.7794   -2.0259 H       1  LIG1        0.0000
     54 H           0.5915   -2.7282   -1.8616 H       1  LIG1        0.0000
     55 H           7.7782   -2.2355    1.5400 H       1  LIG1        0.0000
     56 H           8.6145   -0.0027    1.7412 H       1  LIG1        0.0000
     57 H           7.2627    1.8427    1.0196 H       1  LIG1        0.0000
     58 H           5.0943    1.4282    0.1085 H       1  LIG1        0.0000
     59 H           3.1715    1.8387   -0.1891 H       1  LIG1        0.0000
     60 H           4.9695    2.4792   -1.6383 H       1  LIG1        0.0000
@<TRIPOS>BOND
     1     1     2    1
     2     2     3   ar
     3     3     4   ar
     4     4     5   ar
     5     5     6    1
     6     6     7    2
     7     7     8    1
     8     8     9    1
     9     9    10   ar
    10    10    11   ar
    11    11    12   ar
    12    12    13    1
    13    12    14   ar
    14    14    15   ar
    15    15     9   ar
    16     8    16    1
    17    16    17    1
    18    17    18    2
    19    18    19    1
    20    19    20    2
    21    20    16    1
    22    20    21    1
    23    21     6    1
    24    21    22    1
    25    22    23    1
    26    23    24    2
    27    23    25    1
    28    25    26    2
    29    26    27    1
    30    27    28    1
    31    28    29   ar
    32    29    30   ar
    33    30    31   ar
    34    31    32   ar
    35    32    33   ar
    36    33    28   ar
    37    33    34    1
    38    34    26    1
    39     5    35   ar
    40    35    36   ar
    41    36     2   ar
    42     8    37    1
    43    27    38    1
    44    34    39    1
    45     1    40    1
    46     1    41    1
    47     1    42    1
    48     3    43    1
    49     4    44    1
    50     7    45    1
    51    10    46    1
    52    11    47    1
    53    13    48    1
    54    13    49    1
    55    13    50    1
    56    14    51    1
    57    15    52    1
    58    22    53    1
    59    22    54    1
    60    29    55    1
    61    30    56    1
    62    31    57    1
    63    32    58    1
    64    35    59    1
    65    36    60    1
