@<TRIPOS>MOLECULE
*****
 60 65 0 0 0
SMALL
USER_CHARGES

@<TRIPOS>ATOM
      1 C1          3.8472    3.2422    4.8818 C.3     1  LIG1        0.0000
      2 C2          2.9850    2.5465    3.8421 C.3     1  LIG1        0.0000
      3 C3          3.2285    2.7628    2.4901 C.3     1  LIG1        0.0000
      4 C4          2.4437    2.1293    1.5321 C.3     1  LIG1        0.0000
      5 C5          1.4190    1.2837    1.9442 C.3     1  LIG1        0.0000
      6 C6          0.5985    0.6210    0.9496 C.2     1  LIG1        0.0000
      7 C7          0.0555   -0.5612    1.1923 C.2     1  LIG1        0.0000
      8 C8         -0.8340   -1.2695    0.1791 C.3     1  LIG1        0.0000
      9 C9         -2.2979   -1.1142    0.5566 C.3     1  LIG1        0.0000
     10 C10        -2.7304   -1.5426    1.8072 C.3     1  LIG1        0.0000
     11 C11        -4.0718   -1.3992    2.1466 C.3     1  LIG1        0.0000
     12 C12        -4.9615   -0.8329    1.2408 C.3     1  LIG1        0.0000
     13 C13        -6.4254   -0.6798    1.6225 C.3     1  LIG1        0.0000
     14 C14        -4.5199   -0.4082   -0.0085 C.3     1  LIG1        0.0000
     15 C15        -3.1805   -0.5468   -0.3568 C.3     1  LIG1        0.0000
     16 N16        -0.5231   -0.7724   -1.1742 N.pl3   1  LIG1        0.0000
     17 N17        -0.7050   -1.2973   -2.3661 N.2     1  LIG1        0.0000
     18 N18        -0.2715   -0.5335   -3.2755 N.2     1  LIG1        0.0000
     19 N19         0.2110    0.5474   -2.7061 N.2     1  LIG1        0.0000
     20 C20         0.0595    0.4234   -1.4011 C.cat   1  LIG1        0.0000
     21 N21         0.3595    1.2258   -0.2915 N.pl3   1  LIG1        0.0000
     22 C22         0.4150    2.6877   -0.4359 C.3     1  LIG1        0.0000
     23 C23         1.6385    3.0701   -1.2528 C.2     1  LIG1        0.0000
     24 O24         1.8673    4.2247   -1.4861 O.2     1  LIG1        0.0000
     25 N25         2.4800    2.0964   -1.7228 N.am    1  LIG1        0.0000
     26 C26         3.0072    1.3852   -0.8116 C.2     1  LIG1        0.0000
     27 N27         2.4257    0.3063   -0.2184 N.pl3   1  LIG1        0.0000
     28 C28         3.3115   -0.1743    0.6998 C.3     1  LIG1        0.0000
     29 C29         3.2190   -1.2518    1.5724 C.3     1  LIG1        0.0000
     30 C30         4.2757   -1.5495    2.4268 C.3     1  LIG1        0.0000
     31 C31         5.4231   -0.7629    2.4047 C.3     1  LIG1        0.0000
     32 C32         5.4944    0.3131    1.5254 C.3     1  LIG1        0.0000
     33 C33         4.4389    0.6134    0.6698 C.3     1  LIG1        0.0000
     34 N34         4.2451    1.5809   -0.2728 N.pl3   1  LIG1        0.0000
     35 C35         1.1676    1.0625    3.2946 C.3     1  LIG1        0.0000
     36 C36         1.9571    1.6999    4.2456 C.3     1  LIG1        0.0000
     37 H          -0.6125   -2.2443    0.2057 H       1  LIG1        0.0000
     38 H           1.5187   -0.0641   -0.4188 H       1  LIG1        0.0000
     39 H           4.8919    2.3013   -0.5229 H       1  LIG1        0.0000
     40 H           3.5418    2.9804    5.7973 H       1  LIG1        0.0000
     41 H           4.8019    2.9711    4.7586 H       1  LIG1        0.0000
     42 H           3.7655    4.2330    4.7737 H       1  LIG1        0.0000
     43 H           3.9678    3.3736    2.2066 H       1  LIG1        0.0000
     44 H           2.6143    2.2801    0.5584 H       1  LIG1        0.0000
     45 H           0.2354   -1.0044    2.0705 H       1  LIG1        0.0000
     46 H          -2.0850   -1.9487    2.4542 H       1  LIG1        0.0000
     47 H          -4.3961   -1.7035    3.0423 H       1  LIG1        0.0000
     48 H          -6.9250   -0.2585    0.8655 H       1  LIG1        0.0000
     49 H          -6.8147   -1.5797    1.8188 H       1  LIG1        0.0000
     50 H          -6.4994   -0.1003    2.4341 H       1  LIG1        0.0000
     51 H          -5.1656   -0.0033   -0.6559 H       1  LIG1        0.0000
     52 H          -2.8561   -0.2424   -1.2524 H       1  LIG1        0.0000
     53 H           0.4729    3.1101    0.4687 H       1  LIG1        0.0000
     54 H          -0.4100    3.0083   -0.9013 H       1  LIG1        0.0000
     55 H           2.3919   -1.8137    1.5862 H       1  LIG1        0.0000
     56 H           4.2109   -2.3255    3.0541 H       1  LIG1        0.0000
     57 H           6.1886   -0.9687    3.0144 H       1  LIG1        0.0000
     58 H           6.3179    0.8801    1.5081 H       1  LIG1        0.0000
     59 H           0.4279    0.4522    3.5781 H       1  LIG1        0.0000
     60 H           1.7860    1.5498    5.2193 H       1  LIG1        0.0000
@<TRIPOS>BOND
     1     1     2    1
     2     2     3   ar
     3     3     4   ar
     4     4     5   ar
     5     5     6    1
     6     6     7    2
     7     7     8    1
     8     8     9    1
     9     9    10   ar
    10    10    11   ar
    11    11    12   ar
    12    12    13    1
    13    12    14   ar
    14    14    15   ar
    15    15     9   ar
    16     8    16    1
    17    16    17    1
    18    17    18    2
    19    18    19    1
    20    19    20    2
    21    20    16    1
    22    20    21    1
    23    21     6    1
    24    21    22    1
    25    22    23    1
    26    23    24    2
    27    23    25    1
    28    25    26    2
    29    26    27    1
    30    27    28    1
    31    28    29   ar
    32    29    30   ar
    33    30    31   ar
    34    31    32   ar
    35    32    33   ar
    36    33    28   ar
    37    33    34    1
    38    34    26    1
    39     5    35   ar
    40    35    36   ar
    41    36     2   ar
    42     8    37    1
    43    27    38    1
    44    34    39    1
    45     1    40    1
    46     1    41    1
    47     1    42    1
    48     3    43    1
    49     4    44    1
    50     7    45    1
    51    10    46    1
    52    11    47    1
    53    13    48    1
    54    13    49    1
    55    13    50    1
    56    14    51    1
    57    15    52    1
    58    22    53    1
    59    22    54    1
    60    29    55    1
    61    30    56    1
    62    31    57    1
    63    32    58    1
    64    35    59    1
    65    36    60    1
