@<TRIPOS>MOLECULE
*****
 60 65 0 0 0
SMALL
USER_CHARGES

@<TRIPOS>ATOM
      1 C1          5.4281    1.8025   -4.1997 C.3     1  LIG1        0.0000
      2 C2          4.2895    1.3943   -3.2802 C.3     1  LIG1        0.0000
      3 C3          2.9797    1.7089   -3.6257 C.3     1  LIG1        0.0000
      4 C4          1.9318    1.3384   -2.7893 C.3     1  LIG1        0.0000
      5 C5          2.2122    0.6547   -1.6108 C.3     1  LIG1        0.0000
      6 C6          1.1234    0.2661   -0.7360 C.2     1  LIG1        0.0000
      7 C7          0.7587    1.1209    0.2008 C.2     1  LIG1        0.0000
      8 C8         -0.3734    0.7265    1.1352 C.3     1  LIG1        0.0000
      9 C9         -1.1281    1.9924    1.5063 C.3     1  LIG1        0.0000
     10 C10        -1.7109    2.0964    2.7650 C.3     1  LIG1        0.0000
     11 C11        -2.4015    3.2569    3.0986 C.3     1  LIG1        0.0000
     12 C12        -2.5021    4.2949    2.1791 C.3     1  LIG1        0.0000
     13 C13        -3.2583    5.5595    2.5546 C.3     1  LIG1        0.0000
     14 C14        -1.9167    4.1814    0.9220 C.3     1  LIG1        0.0000
     15 C15        -1.2235    3.0252    0.5794 C.3     1  LIG1        0.0000
     16 N16        -1.2789   -0.2535    0.5157 N.pl3   1  LIG1        0.0000
     17 N17        -2.5472   -0.4998    0.7548 N.2     1  LIG1        0.0000
     18 N18        -2.9556   -1.4311   -0.0003 N.2     1  LIG1        0.0000
     19 N19        -1.9548   -1.8233   -0.7601 N.2     1  LIG1        0.0000
     20 C20        -0.8909   -1.1052   -0.4552 C.cat   1  LIG1        0.0000
     21 N21         0.4607   -0.9661   -0.8509 N.pl3   1  LIG1        0.0000
     22 C22         1.2162   -2.1089   -1.3859 C.3     1  LIG1        0.0000
     23 C23         1.0615   -2.1556   -2.8973 C.2     1  LIG1        0.0000
     24 O24         0.3968   -1.3289   -3.4583 O.2     1  LIG1        0.0000
     25 N25         1.6810   -3.1416   -3.6191 N.am    1  LIG1        0.0000
     26 C26         2.3540   -3.9546   -2.9118 C.2     1  LIG1        0.0000
     27 N27         1.8991   -5.1447   -2.4314 N.pl3   1  LIG1        0.0000
     28 C28         2.9196   -5.7106   -1.7263 C.3     1  LIG1        0.0000
     29 C29         2.9871   -6.9146   -1.0358 C.3     1  LIG1        0.0000
     30 C30         4.1613   -7.2803   -0.3856 C.3     1  LIG1        0.0000
     31 C31         5.2655   -6.4348   -0.4284 C.3     1  LIG1        0.0000
     32 C32         5.1760   -5.2324   -1.1229 C.3     1  LIG1        0.0000
     33 C33         4.0027   -4.8639   -1.7741 C.3     1  LIG1        0.0000
     34 N34         3.6461   -3.7741   -2.5138 N.pl3   1  LIG1        0.0000
     35 C35         3.5196    0.3368   -1.2569 C.3     1  LIG1        0.0000
     36 C36         4.5612    0.7110   -2.0989 C.3     1  LIG1        0.0000
     37 H           0.0163    0.3273    1.9651 H       1  LIG1        0.0000
     38 H           0.9873   -5.5312   -2.5698 H       1  LIG1        0.0000
     39 H           4.2259   -2.9872   -2.7252 H       1  LIG1        0.0000
     40 H           6.2975    1.5024   -3.8071 H       1  LIG1        0.0000
     41 H           5.3021    1.3764   -5.0956 H       1  LIG1        0.0000
     42 H           5.4340    2.7972   -4.3016 H       1  LIG1        0.0000
     43 H           2.7912    2.2015   -4.4753 H       1  LIG1        0.0000
     44 H           0.9877    1.5611   -3.0324 H       1  LIG1        0.0000
     45 H           1.2155    2.0056    0.2935 H       1  LIG1        0.0000
     46 H          -1.6343    1.3463    3.4218 H       1  LIG1        0.0000
     47 H          -2.8257    3.3446    3.9999 H       1  LIG1        0.0000
     48 H          -3.2364    6.2011    1.7878 H       1  LIG1        0.0000
     49 H          -4.2074    5.3291    2.7693 H       1  LIG1        0.0000
     50 H          -2.8285    5.9802    3.3535 H       1  LIG1        0.0000
     51 H          -1.9943    4.9311    0.2647 H       1  LIG1        0.0000
     52 H          -0.7992    2.9375   -0.3219 H       1  LIG1        0.0000
     53 H           0.8645   -2.9565   -0.9885 H       1  LIG1        0.0000
     54 H           2.1834   -2.0076   -1.1528 H       1  LIG1        0.0000
     55 H           2.1908   -7.5188   -1.0062 H       1  LIG1        0.0000
     56 H           4.2116   -8.1471    0.1104 H       1  LIG1        0.0000
     57 H           6.1144   -6.6885    0.0352 H       1  LIG1        0.0000
     58 H           5.9681   -4.6229   -1.1546 H       1  LIG1        0.0000
     59 H           3.7082   -0.1551   -0.4069 H       1  LIG1        0.0000
     60 H           5.5054    0.4891   -1.8554 H       1  LIG1        0.0000
@<TRIPOS>BOND
     1     1     2    1
     2     2     3   ar
     3     3     4   ar
     4     4     5   ar
     5     5     6    1
     6     6     7    2
     7     7     8    1
     8     8     9    1
     9     9    10   ar
    10    10    11   ar
    11    11    12   ar
    12    12    13    1
    13    12    14   ar
    14    14    15   ar
    15    15     9   ar
    16     8    16    1
    17    16    17    1
    18    17    18    2
    19    18    19    1
    20    19    20    2
    21    20    16    1
    22    20    21    1
    23    21     6    1
    24    21    22    1
    25    22    23    1
    26    23    24    2
    27    23    25    1
    28    25    26    2
    29    26    27    1
    30    27    28    1
    31    28    29   ar
    32    29    30   ar
    33    30    31   ar
    34    31    32   ar
    35    32    33   ar
    36    33    28   ar
    37    33    34    1
    38    34    26    1
    39     5    35   ar
    40    35    36   ar
    41    36     2   ar
    42     8    37    1
    43    27    38    1
    44    34    39    1
    45     1    40    1
    46     1    41    1
    47     1    42    1
    48     3    43    1
    49     4    44    1
    50     7    45    1
    51    10    46    1
    52    11    47    1
    53    13    48    1
    54    13    49    1
    55    13    50    1
    56    14    51    1
    57    15    52    1
    58    22    53    1
    59    22    54    1
    60    29    55    1
    61    30    56    1
    62    31    57    1
    63    32    58    1
    64    35    59    1
    65    36    60    1
