@<TRIPOS>MOLECULE
*****
 60 65 0 0 0
SMALL
USER_CHARGES

@<TRIPOS>ATOM
      1 C1          4.9580    4.8524    1.3914 C.3     1  LIG1        0.0000
      2 C2          3.8988    3.8160    1.0563 C.3     1  LIG1        0.0000
      3 C3          4.1101    2.4831    1.3920 C.3     1  LIG1        0.0000
      4 C4          3.1451    1.5282    1.0889 C.3     1  LIG1        0.0000
      5 C5          1.9751    1.9240    0.4489 C.3     1  LIG1        0.0000
      6 C6          0.9662    0.9326    0.1312 C.2     1  LIG1        0.0000
      7 C7         -0.3038    1.2976    0.0987 C.2     1  LIG1        0.0000
      8 C8         -1.3691    0.2693   -0.2614 C.3     1  LIG1        0.0000
      9 C9         -1.6674    0.4066   -1.7453 C.3     1  LIG1        0.0000
     10 C10        -2.9510    0.1429   -2.2116 C.3     1  LIG1        0.0000
     11 C11        -3.2178    0.2688   -3.5711 C.3     1  LIG1        0.0000
     12 C12        -2.2078    0.6548   -4.4450 C.3     1  LIG1        0.0000
     13 C13        -2.5105    0.7906   -5.9290 C.3     1  LIG1        0.0000
     14 C14        -0.9264    0.9155   -3.9695 C.3     1  LIG1        0.0000
     15 C15        -0.6501    0.7929   -2.6118 C.3     1  LIG1        0.0000
     16 N16        -0.9259   -1.0985    0.0591 N.pl3   1  LIG1        0.0000
     17 N17        -1.6132   -2.1867    0.3371 N.2     1  LIG1        0.0000
     18 N18        -0.8338   -3.1654    0.5144 N.2     1  LIG1        0.0000
     19 N19         0.4011   -2.7382    0.3705 N.2     1  LIG1        0.0000
     20 C20         0.3796   -1.4460    0.1022 C.cat   1  LIG1        0.0000
     21 N21         1.2862   -0.4033   -0.1516 N.pl3   1  LIG1        0.0000
     22 C22         2.6035   -0.6999   -0.7337 C.3     1  LIG1        0.0000
     23 C23         2.5091   -0.6549   -2.2501 C.2     1  LIG1        0.0000
     24 O24         1.7634   -1.3972   -2.8271 O.2     1  LIG1        0.0000
     25 N25         3.2754    0.2331   -2.9581 N.am    1  LIG1        0.0000
     26 C26         2.7183    1.3588   -3.1490 C.2     1  LIG1        0.0000
     27 N27         2.1863    1.7850   -4.3277 N.pl3   1  LIG1        0.0000
     28 C28         1.6899    3.0370   -4.1159 C.3     1  LIG1        0.0000
     29 C29         1.0483    3.9168   -4.9793 C.3     1  LIG1        0.0000
     30 C30         0.6245    5.1595   -4.5197 C.3     1  LIG1        0.0000
     31 C31         0.8476    5.5174   -3.1938 C.3     1  LIG1        0.0000
     32 C32         1.4943    4.6230   -2.3466 C.3     1  LIG1        0.0000
     33 C33         1.9196    3.3794   -2.8035 C.3     1  LIG1        0.0000
     34 N34         2.5581    2.3316   -2.2063 N.pl3   1  LIG1        0.0000
     35 C35         1.7559    3.2551    0.1085 C.3     1  LIG1        0.0000
     36 C36         2.7260    4.2031    0.4153 C.3     1  LIG1        0.0000
     37 H          -2.2010    0.4699    0.2561 H       1  LIG1        0.0000
     38 H           2.1638    1.2752   -5.1877 H       1  LIG1        0.0000
     39 H           2.8544    2.2855   -1.2523 H       1  LIG1        0.0000
     40 H           4.6514    5.7535    1.0847 H       1  LIG1        0.0000
     41 H           5.1065    4.8696    2.3801 H       1  LIG1        0.0000
     42 H           5.8131    4.6164    0.9299 H       1  LIG1        0.0000
     43 H           4.9557    2.2110    1.8512 H       1  LIG1        0.0000
     44 H           3.2907    0.5683    1.3283 H       1  LIG1        0.0000
     45 H          -0.5632    2.2403    0.3087 H       1  LIG1        0.0000
     46 H          -3.6730   -0.1338   -1.5775 H       1  LIG1        0.0000
     47 H          -4.1362    0.0817   -3.9198 H       1  LIG1        0.0000
     48 H          -1.6828    1.0735   -6.4135 H       1  LIG1        0.0000
     49 H          -2.8223   -0.0893   -6.2874 H       1  LIG1        0.0000
     50 H          -3.2256    1.4769   -6.0618 H       1  LIG1        0.0000
     51 H          -0.2041    1.1911   -4.6038 H       1  LIG1        0.0000
     52 H           0.2682    0.9802   -2.2631 H       1  LIG1        0.0000
     53 H           2.8980   -1.6108   -0.4449 H       1  LIG1        0.0000
     54 H           3.2669   -0.0202   -0.4207 H       1  LIG1        0.0000
     55 H           0.8912    3.6564   -5.9319 H       1  LIG1        0.0000
     56 H           0.1613    5.7929   -5.1396 H       1  LIG1        0.0000
     57 H           0.5463    6.4081   -2.8533 H       1  LIG1        0.0000
     58 H           1.6562    4.8783   -1.3934 H       1  LIG1        0.0000
     59 H           0.9106    3.5270   -0.3514 H       1  LIG1        0.0000
     60 H           2.5808    5.1629    0.1752 H       1  LIG1        0.0000
@<TRIPOS>BOND
     1     1     2    1
     2     2     3   ar
     3     3     4   ar
     4     4     5   ar
     5     5     6    1
     6     6     7    2
     7     7     8    1
     8     8     9    1
     9     9    10   ar
    10    10    11   ar
    11    11    12   ar
    12    12    13    1
    13    12    14   ar
    14    14    15   ar
    15    15     9   ar
    16     8    16    1
    17    16    17    1
    18    17    18    2
    19    18    19    1
    20    19    20    2
    21    20    16    1
    22    20    21    1
    23    21     6    1
    24    21    22    1
    25    22    23    1
    26    23    24    2
    27    23    25    1
    28    25    26    2
    29    26    27    1
    30    27    28    1
    31    28    29   ar
    32    29    30   ar
    33    30    31   ar
    34    31    32   ar
    35    32    33   ar
    36    33    28   ar
    37    33    34    1
    38    34    26    1
    39     5    35   ar
    40    35    36   ar
    41    36     2   ar
    42     8    37    1
    43    27    38    1
    44    34    39    1
    45     1    40    1
    46     1    41    1
    47     1    42    1
    48     3    43    1
    49     4    44    1
    50     7    45    1
    51    10    46    1
    52    11    47    1
    53    13    48    1
    54    13    49    1
    55    13    50    1
    56    14    51    1
    57    15    52    1
    58    22    53    1
    59    22    54    1
    60    29    55    1
    61    30    56    1
    62    31    57    1
    63    32    58    1
    64    35    59    1
    65    36    60    1
