@<TRIPOS>MOLECULE

  33   33
SMALL
USER_CHARGES
@<TRIPOS>ATOM
   1 C1          -1.1418    -1.3362     3.1280 C.3          1    LIG   0.0000
   2 C2          -1.8284    -0.6081     1.9839 C.2          1    LIG   0.0000
   3 C3          -3.3400    -0.4485     1.9830 C.3          1    LIG   0.0000
   4 C4          -1.1229    -0.1220     1.0062 C.2          1    LIG   0.0000
   5 C5           0.3887    -0.2817     1.0071 C.3          1    LIG   0.0000
   6 O6           1.0000     1.0000     1.0000 O.3          1    LIG   0.0000
   7 C7           2.3508     1.0000     1.0000 C.ar         1    LIG   0.0000
   8 C8           3.0284    -0.2142     1.0054 C.ar         1    LIG   0.0000
   9 C9           4.4191    -0.2345     1.0063 C.ar         1    LIG   0.0000
  10 C10          5.1319     0.9597     1.0006 C.ar         1    LIG   0.0000
  11 C11          4.4540     2.1742     0.9938 C.ar         1    LIG   0.0000
  12 C12          3.0635     2.1944     0.9934 C.ar         1    LIG   0.0000
  13 C13          2.3231     3.5212     0.9856 C.3          1    LIG   0.0000
  14 C14          2.0758     3.9718     2.4161 C.3          1    LIG   0.0000
  15 O15          1.3838     5.2118     2.4088 O.3          1    LIG   0.0000
  16 H           -1.8279    -1.6422     3.7879 H            1    LIG   0.0000
  17 H           -0.6471    -2.1281     2.7700 H            1    LIG   0.0000
  18 H           -0.4986    -0.7172     3.5787 H            1    LIG   0.0000
  19 H           -3.7210    -0.8777     2.8019 H            1    LIG   0.0000
  20 H           -3.5725     0.5241     1.9777 H            1    LIG   0.0000
  21 H           -3.7210    -0.8868     1.1690 H            1    LIG   0.0000
  22 H           -1.5747     0.3570     0.2536 H            1    LIG   0.0000
  23 H            0.6707    -0.7809     1.8264 H            1    LIG   0.0000
  24 H            0.6707    -0.7900     0.1934 H            1    LIG   0.0000
  25 H            2.5158    -1.0728     1.0085 H            1    LIG   0.0000
  26 H            4.9064    -1.1077     1.0111 H            1    LIG   0.0000
  27 H            6.1318     0.9452     1.0014 H            1    LIG   0.0000
  28 H            4.9665     3.0328     0.9891 H            1    LIG   0.0000
  29 H            1.4478     3.4117     0.5146 H            1    LIG   0.0000
  30 H            2.8738     4.2075     0.5104 H            1    LIG   0.0000
  31 H            1.5251     3.2855     2.8913 H            1    LIG   0.0000
  32 H            2.9511     4.0813     2.8871 H            1    LIG   0.0000
  33 H            1.2211     5.5082     3.3499 H            1    LIG   0.0000
@<TRIPOS>BOND
   1        1        2 1
   2        2        3 1
   3        2        4 2
   4        4        5 1
   5        5        6 1
   6        6        7 1
   7        7        8 ar
   8        8        9 ar
   9        9       10 ar
  10       10       11 ar
  11       11       12 ar
  12       12        7 ar
  13       12       13 1
  14       13       14 1
  15       14       15 1
  16        1       16 1
  17        1       17 1
  18        1       18 1
  19        3       19 1
  20        3       20 1
  21        3       21 1
  22        4       22 1
  23        5       23 1
  24        5       24 1
  25        8       25 1
  26        9       26 1
  27       10       27 1
  28       11       28 1
  29       13       29 1
  30       13       30 1
  31       14       31 1
  32       14       32 1
  33       15       33 1

@<TRIPOS>MOLECULE

  33   33
SMALL
USER_CHARGES
@<TRIPOS>ATOM
   1 C1          -1.1418    -1.3596    -1.1020 C.3          1    LIG   0.0000
   2 C2          -1.8284    -0.6189     0.0340 C.2          1    LIG   0.0000
   3 C3          -3.3400    -0.4593     0.0331 C.3          1    LIG   0.0000
   4 C4          -1.1229    -0.1220     1.0062 C.2          1    LIG   0.0000
   5 C5           0.3887    -0.2817     1.0071 C.3          1    LIG   0.0000
   6 O6           1.0000     1.0000     1.0000 O.3          1    LIG   0.0000
   7 C7           2.3508     1.0000     1.0000 C.ar         1    LIG   0.0000
   8 C8           3.0284    -0.2142     1.0054 C.ar         1    LIG   0.0000
   9 C9           4.4191    -0.2345     1.0063 C.ar         1    LIG   0.0000
  10 C10          5.1319     0.9597     1.0006 C.ar         1    LIG   0.0000
  11 C11          4.4540     2.1742     0.9938 C.ar         1    LIG   0.0000
  12 C12          3.0635     2.1944     0.9934 C.ar         1    LIG   0.0000
  13 C13          2.3231     3.5212     0.9856 C.3          1    LIG   0.0000
  14 C14          2.0758     3.9718     2.4161 C.3          1    LIG   0.0000
  15 O15          1.3838     5.2118     2.4088 O.3          1    LIG   0.0000
  16 H           -1.8279    -1.6729    -1.7585 H            1    LIG   0.0000
  17 H           -0.4986    -0.7457    -1.5595 H            1    LIG   0.0000
  18 H           -0.6471    -2.1475    -0.7352 H            1    LIG   0.0000
  19 H           -3.7210    -0.8976    -0.7810 H            1    LIG   0.0000
  20 H           -3.7210    -0.8886     0.8520 H            1    LIG   0.0000
  21 H           -3.5725     0.5133     0.0277 H            1    LIG   0.0000
  22 H           -1.5747     0.3653     1.7535 H            1    LIG   0.0000
  23 H            0.6707    -0.7809     1.8264 H            1    LIG   0.0000
  24 H            0.6707    -0.7900     0.1934 H            1    LIG   0.0000
  25 H            2.5158    -1.0728     1.0085 H            1    LIG   0.0000
  26 H            4.9064    -1.1077     1.0111 H            1    LIG   0.0000
  27 H            6.1318     0.9452     1.0014 H            1    LIG   0.0000
  28 H            4.9665     3.0328     0.9891 H            1    LIG   0.0000
  29 H            1.4478     3.4117     0.5146 H            1    LIG   0.0000
  30 H            2.8738     4.2075     0.5104 H            1    LIG   0.0000
  31 H            1.5251     3.2855     2.8913 H            1    LIG   0.0000
  32 H            2.9511     4.0813     2.8871 H            1    LIG   0.0000
  33 H            1.2211     5.5082     3.3499 H            1    LIG   0.0000
@<TRIPOS>BOND
   1        1        2 1
   2        2        3 1
   3        2        4 2
   4        4        5 1
   5        5        6 1
   6        6        7 1
   7        7        8 ar
   8        8        9 ar
   9        9       10 ar
  10       10       11 ar
  11       11       12 ar
  12       12        7 ar
  13       12       13 1
  14       13       14 1
  15       14       15 1
  16        1       16 1
  17        1       17 1
  18        1       18 1
  19        3       19 1
  20        3       20 1
  21        3       21 1
  22        4       22 1
  23        5       23 1
  24        5       24 1
  25        8       25 1
  26        9       26 1
  27       10       27 1
  28       11       28 1
  29       13       29 1
  30       13       30 1
  31       14       31 1
  32       14       32 1
  33       15       33 1

@<TRIPOS>MOLECULE

  33   33
SMALL
USER_CHARGES
@<TRIPOS>ATOM
   1 C1          -2.0447    -0.9101     2.2862 C.3          1    LIG   0.0000
   2 C2          -0.7266    -1.1280     3.0112 C.2          1    LIG   0.0000
   3 C3          -0.7201    -1.6846     4.4256 C.3          1    LIG   0.0000
   4 C4           0.3952    -0.8383     2.4215 C.2          1    LIG   0.0000
   5 C5           0.3887    -0.2817     1.0071 C.3          1    LIG   0.0000
   6 O6           1.0000     1.0000     1.0000 O.3          1    LIG   0.0000
   7 C7           2.3508     1.0000     1.0000 C.ar         1    LIG   0.0000
   8 C8           3.0284    -0.2142     1.0054 C.ar         1    LIG   0.0000
   9 C9           4.4191    -0.2345     1.0063 C.ar         1    LIG   0.0000
  10 C10          5.1319     0.9597     1.0006 C.ar         1    LIG   0.0000
  11 C11          4.4540     2.1742     0.9938 C.ar         1    LIG   0.0000
  12 C12          3.0635     2.1944     0.9934 C.ar         1    LIG   0.0000
  13 C13          2.3231     3.5212     0.9856 C.3          1    LIG   0.0000
  14 C14          2.0758     3.9718     2.4161 C.3          1    LIG   0.0000
  15 O15          1.3838     5.2118     2.4088 O.3          1    LIG   0.0000
  16 H           -2.8011    -1.1830     2.8806 H            1    LIG   0.0000
  17 H           -2.1390     0.0568     2.0493 H            1    LIG   0.0000
  18 H           -2.0611    -1.4609     1.4517 H            1    LIG   0.0000
  19 H           -1.6604    -1.8500     4.7230 H            1    LIG   0.0000
  20 H           -0.2089    -2.5439     4.4433 H            1    LIG   0.0000
  21 H           -0.2868    -1.0262     5.0409 H            1    LIG   0.0000
  22 H            1.2623    -0.9816     2.8985 H            1    LIG   0.0000
  23 H            0.8970    -0.8968     0.4045 H            1    LIG   0.0000
  24 H           -0.5545    -0.2029     0.6842 H            1    LIG   0.0000
  25 H            2.5158    -1.0728     1.0085 H            1    LIG   0.0000
  26 H            4.9064    -1.1077     1.0111 H            1    LIG   0.0000
  27 H            6.1318     0.9452     1.0014 H            1    LIG   0.0000
  28 H            4.9665     3.0328     0.9891 H            1    LIG   0.0000
  29 H            1.4478     3.4117     0.5146 H            1    LIG   0.0000
  30 H            2.8738     4.2075     0.5104 H            1    LIG   0.0000
  31 H            1.5251     3.2855     2.8913 H            1    LIG   0.0000
  32 H            2.9511     4.0813     2.8871 H            1    LIG   0.0000
  33 H            1.2211     5.5082     3.3499 H            1    LIG   0.0000
@<TRIPOS>BOND
   1        1        2 1
   2        2        3 1
   3        2        4 2
   4        4        5 1
   5        5        6 1
   6        6        7 1
   7        7        8 ar
   8        8        9 ar
   9        9       10 ar
  10       10       11 ar
  11       11       12 ar
  12       12        7 ar
  13       12       13 1
  14       13       14 1
  15       14       15 1
  16        1       16 1
  17        1       17 1
  18        1       18 1
  19        3       19 1
  20        3       20 1
  21        3       21 1
  22        4       22 1
  23        5       23 1
  24        5       24 1
  25        8       25 1
  26        9       26 1
  27       10       27 1
  28       11       28 1
  29       13       29 1
  30       13       30 1
  31       14       31 1
  32       14       32 1
  33       15       33 1

@<TRIPOS>MOLECULE

  33   33
SMALL
USER_CHARGES
@<TRIPOS>ATOM
   1 C1          -2.0447    -0.9243    -0.2649 C.3          1    LIG   0.0000
   2 C2          -0.7266    -1.1502    -0.9874 C.2          1    LIG   0.0000
   3 C3          -0.7201    -1.7224    -2.3956 C.3          1    LIG   0.0000
   4 C4           0.3952    -0.8539    -0.4010 C.2          1    LIG   0.0000
   5 C5           0.3887    -0.2817     1.0071 C.3          1    LIG   0.0000
   6 O6           1.0000     1.0000     1.0000 O.3          1    LIG   0.0000
   7 C7           2.3508     1.0000     1.0000 C.ar         1    LIG   0.0000
   8 C8           3.0284    -0.2142     1.0054 C.ar         1    LIG   0.0000
   9 C9           4.4191    -0.2345     1.0063 C.ar         1    LIG   0.0000
  10 C10          5.1319     0.9597     1.0006 C.ar         1    LIG   0.0000
  11 C11          4.4540     2.1742     0.9938 C.ar         1    LIG   0.0000
  12 C12          3.0635     2.1944     0.9934 C.ar         1    LIG   0.0000
  13 C13          2.3231     3.5212     0.9856 C.3          1    LIG   0.0000
  14 C14          2.0758     3.9718     2.4161 C.3          1    LIG   0.0000
  15 O15          1.3838     5.2118     2.4088 O.3          1    LIG   0.0000
  16 H           -2.8011    -1.2037    -0.8563 H            1    LIG   0.0000
  17 H           -2.0611    -1.4658     0.5756 H            1    LIG   0.0000
  18 H           -2.1390     0.0452    -0.0388 H            1    LIG   0.0000
  19 H           -1.6604    -1.8911    -2.6912 H            1    LIG   0.0000
  20 H           -0.2868    -1.0708    -3.0182 H            1    LIG   0.0000
  21 H           -0.2089    -2.5818    -2.4038 H            1    LIG   0.0000
  22 H            1.2623    -1.0025    -0.8764 H            1    LIG   0.0000
  23 H           -0.5545    -0.1993     1.3291 H            1    LIG   0.0000
  24 H            0.8970    -0.8901     1.6165 H            1    LIG   0.0000
  25 H            2.5158    -1.0728     1.0085 H            1    LIG   0.0000
  26 H            4.9064    -1.1077     1.0111 H            1    LIG   0.0000
  27 H            6.1318     0.9452     1.0014 H            1    LIG   0.0000
  28 H            4.9665     3.0328     0.9891 H            1    LIG   0.0000
  29 H            1.4478     3.4117     0.5146 H            1    LIG   0.0000
  30 H            2.8738     4.2075     0.5104 H            1    LIG   0.0000
  31 H            1.5251     3.2855     2.8913 H            1    LIG   0.0000
  32 H            2.9511     4.0813     2.8871 H            1    LIG   0.0000
  33 H            1.2211     5.5082     3.3499 H            1    LIG   0.0000
@<TRIPOS>BOND
   1        1        2 1
   2        2        3 1
   3        2        4 2
   4        4        5 1
   5        5        6 1
   6        6        7 1
   7        7        8 ar
   8        8        9 ar
   9        9       10 ar
  10       10       11 ar
  11       11       12 ar
  12       12        7 ar
  13       12       13 1
  14       13       14 1
  15       14       15 1
  16        1       16 1
  17        1       17 1
  18        1       18 1
  19        3       19 1
  20        3       20 1
  21        3       21 1
  22        4       22 1
  23        5       23 1
  24        5       24 1
  25        8       25 1
  26        9       26 1
  27       10       27 1
  28       11       28 1
  29       13       29 1
  30       13       30 1
  31       14       31 1
  32       14       32 1
  33       15       33 1

@<TRIPOS>MOLECULE

  33   33
SMALL
USER_CHARGES
@<TRIPOS>ATOM
   1 C1          -1.1418    -1.3362     3.1280 C.3          1    LIG   0.0000
   2 C2          -1.8284    -0.6081     1.9839 C.2          1    LIG   0.0000
   3 C3          -3.3400    -0.4485     1.9830 C.3          1    LIG   0.0000
   4 C4          -1.1229    -0.1220     1.0062 C.2          1    LIG   0.0000
   5 C5           0.3887    -0.2817     1.0071 C.3          1    LIG   0.0000
   6 O6           1.0000     1.0000     1.0000 O.3          1    LIG   0.0000
   7 C7           2.3508     1.0000     1.0000 C.ar         1    LIG   0.0000
   8 C8           3.0284    -0.2142     1.0054 C.ar         1    LIG   0.0000
   9 C9           4.4191    -0.2345     1.0063 C.ar         1    LIG   0.0000
  10 C10          5.1319     0.9597     1.0006 C.ar         1    LIG   0.0000
  11 C11          4.4540     2.1742     0.9938 C.ar         1    LIG   0.0000
  12 C12          3.0635     2.1944     0.9934 C.ar         1    LIG   0.0000
  13 C13          2.3231     3.5212     0.9856 C.3          1    LIG   0.0000
  14 C14          2.0766     3.9555    -0.4500 C.3          1    LIG   0.0000
  15 O15          1.3846     5.1954    -0.4573 O.3          1    LIG   0.0000
  16 H           -1.8279    -1.6422     3.7879 H            1    LIG   0.0000
  17 H           -0.6471    -2.1281     2.7700 H            1    LIG   0.0000
  18 H           -0.4986    -0.7172     3.5787 H            1    LIG   0.0000
  19 H           -3.7210    -0.8777     2.8019 H            1    LIG   0.0000
  20 H           -3.5725     0.5241     1.9777 H            1    LIG   0.0000
  21 H           -3.7210    -0.8868     1.1690 H            1    LIG   0.0000
  22 H           -1.5747     0.3570     0.2536 H            1    LIG   0.0000
  23 H            0.6707    -0.7809     1.8264 H            1    LIG   0.0000
  24 H            0.6707    -0.7900     0.1934 H            1    LIG   0.0000
  25 H            2.5158    -1.0728     1.0085 H            1    LIG   0.0000
  26 H            4.9064    -1.1077     1.0111 H            1    LIG   0.0000
  27 H            6.1318     0.9452     1.0014 H            1    LIG   0.0000
  28 H            4.9665     3.0328     0.9891 H            1    LIG   0.0000
  29 H            2.8735     4.2128     1.4532 H            1    LIG   0.0000
  30 H            1.4475     3.4171     1.4574 H            1    LIG   0.0000
  31 H            2.9521     4.0596    -0.9218 H            1    LIG   0.0000
  32 H            1.5261     3.2638    -0.9176 H            1    LIG   0.0000
  33 H            1.2224     5.4811    -1.4018 H            1    LIG   0.0000
@<TRIPOS>BOND
   1        1        2 1
   2        2        3 1
   3        2        4 2
   4        4        5 1
   5        5        6 1
   6        6        7 1
   7        7        8 ar
   8        8        9 ar
   9        9       10 ar
  10       10       11 ar
  11       11       12 ar
  12       12        7 ar
  13       12       13 1
  14       13       14 1
  15       14       15 1
  16        1       16 1
  17        1       17 1
  18        1       18 1
  19        3       19 1
  20        3       20 1
  21        3       21 1
  22        4       22 1
  23        5       23 1
  24        5       24 1
  25        8       25 1
  26        9       26 1
  27       10       27 1
  28       11       28 1
  29       13       29 1
  30       13       30 1
  31       14       31 1
  32       14       32 1
  33       15       33 1

@<TRIPOS>MOLECULE

  33   33
SMALL
USER_CHARGES
@<TRIPOS>ATOM
   1 C1          -1.1418    -1.3596    -1.1020 C.3          1    LIG   0.0000
   2 C2          -1.8284    -0.6189     0.0340 C.2          1    LIG   0.0000
   3 C3          -3.3400    -0.4593     0.0331 C.3          1    LIG   0.0000
   4 C4          -1.1229    -0.1220     1.0062 C.2          1    LIG   0.0000
   5 C5           0.3887    -0.2817     1.0071 C.3          1    LIG   0.0000
   6 O6           1.0000     1.0000     1.0000 O.3          1    LIG   0.0000
   7 C7           2.3508     1.0000     1.0000 C.ar         1    LIG   0.0000
   8 C8           3.0284    -0.2142     1.0054 C.ar         1    LIG   0.0000
   9 C9           4.4191    -0.2345     1.0063 C.ar         1    LIG   0.0000
  10 C10          5.1319     0.9597     1.0006 C.ar         1    LIG   0.0000
  11 C11          4.4540     2.1742     0.9938 C.ar         1    LIG   0.0000
  12 C12          3.0635     2.1944     0.9934 C.ar         1    LIG   0.0000
  13 C13          2.3231     3.5212     0.9856 C.3          1    LIG   0.0000
  14 C14          2.0766     3.9555    -0.4500 C.3          1    LIG   0.0000
  15 O15          1.3846     5.1954    -0.4573 O.3          1    LIG   0.0000
  16 H           -1.8279    -1.6729    -1.7585 H            1    LIG   0.0000
  17 H           -0.4986    -0.7457    -1.5595 H            1    LIG   0.0000
  18 H           -0.6471    -2.1475    -0.7352 H            1    LIG   0.0000
  19 H           -3.7210    -0.8976    -0.7810 H            1    LIG   0.0000
  20 H           -3.7210    -0.8886     0.8520 H            1    LIG   0.0000
  21 H           -3.5725     0.5133     0.0277 H            1    LIG   0.0000
  22 H           -1.5747     0.3653     1.7535 H            1    LIG   0.0000
  23 H            0.6707    -0.7809     1.8264 H            1    LIG   0.0000
  24 H            0.6707    -0.7900     0.1934 H            1    LIG   0.0000
  25 H            2.5158    -1.0728     1.0085 H            1    LIG   0.0000
  26 H            4.9064    -1.1077     1.0111 H            1    LIG   0.0000
  27 H            6.1318     0.9452     1.0014 H            1    LIG   0.0000
  28 H            4.9665     3.0328     0.9891 H            1    LIG   0.0000
  29 H            2.8735     4.2128     1.4532 H            1    LIG   0.0000
  30 H            1.4475     3.4171     1.4574 H            1    LIG   0.0000
  31 H            2.9521     4.0596    -0.9218 H            1    LIG   0.0000
  32 H            1.5261     3.2638    -0.9176 H            1    LIG   0.0000
  33 H            1.2224     5.4811    -1.4018 H            1    LIG   0.0000
@<TRIPOS>BOND
   1        1        2 1
   2        2        3 1
   3        2        4 2
   4        4        5 1
   5        5        6 1
   6        6        7 1
   7        7        8 ar
   8        8        9 ar
   9        9       10 ar
  10       10       11 ar
  11       11       12 ar
  12       12        7 ar
  13       12       13 1
  14       13       14 1
  15       14       15 1
  16        1       16 1
  17        1       17 1
  18        1       18 1
  19        3       19 1
  20        3       20 1
  21        3       21 1
  22        4       22 1
  23        5       23 1
  24        5       24 1
  25        8       25 1
  26        9       26 1
  27       10       27 1
  28       11       28 1
  29       13       29 1
  30       13       30 1
  31       14       31 1
  32       14       32 1
  33       15       33 1

@<TRIPOS>MOLECULE

  33   33
SMALL
USER_CHARGES
@<TRIPOS>ATOM
   1 C1          -2.0447    -0.9101     2.2862 C.3          1    LIG   0.0000
   2 C2          -0.7266    -1.1280     3.0112 C.2          1    LIG   0.0000
   3 C3          -0.7201    -1.6846     4.4256 C.3          1    LIG   0.0000
   4 C4           0.3952    -0.8383     2.4215 C.2          1    LIG   0.0000
   5 C5           0.3887    -0.2817     1.0071 C.3          1    LIG   0.0000
   6 O6           1.0000     1.0000     1.0000 O.3          1    LIG   0.0000
   7 C7           2.3508     1.0000     1.0000 C.ar         1    LIG   0.0000
   8 C8           3.0284    -0.2142     1.0054 C.ar         1    LIG   0.0000
   9 C9           4.4191    -0.2345     1.0063 C.ar         1    LIG   0.0000
  10 C10          5.1319     0.9597     1.0006 C.ar         1    LIG   0.0000
  11 C11          4.4540     2.1742     0.9938 C.ar         1    LIG   0.0000
  12 C12          3.0635     2.1944     0.9934 C.ar         1    LIG   0.0000
  13 C13          2.3231     3.5212     0.9856 C.3          1    LIG   0.0000
  14 C14          2.0766     3.9555    -0.4500 C.3          1    LIG   0.0000
  15 O15          1.3846     5.1954    -0.4573 O.3          1    LIG   0.0000
  16 H           -2.8011    -1.1830     2.8806 H            1    LIG   0.0000
  17 H           -2.1390     0.0568     2.0493 H            1    LIG   0.0000
  18 H           -2.0611    -1.4609     1.4517 H            1    LIG   0.0000
  19 H           -1.6604    -1.8500     4.7230 H            1    LIG   0.0000
  20 H           -0.2089    -2.5439     4.4433 H            1    LIG   0.0000
  21 H           -0.2868    -1.0262     5.0409 H            1    LIG   0.0000
  22 H            1.2623    -0.9816     2.8985 H            1    LIG   0.0000
  23 H            0.8970    -0.8968     0.4045 H            1    LIG   0.0000
  24 H           -0.5545    -0.2029     0.6842 H            1    LIG   0.0000
  25 H            2.5158    -1.0728     1.0085 H            1    LIG   0.0000
  26 H            4.9064    -1.1077     1.0111 H            1    LIG   0.0000
  27 H            6.1318     0.9452     1.0014 H            1    LIG   0.0000
  28 H            4.9665     3.0328     0.9891 H            1    LIG   0.0000
  29 H            2.8735     4.2128     1.4532 H            1    LIG   0.0000
  30 H            1.4475     3.4171     1.4574 H            1    LIG   0.0000
  31 H            2.9521     4.0596    -0.9218 H            1    LIG   0.0000
  32 H            1.5261     3.2638    -0.9176 H            1    LIG   0.0000
  33 H            1.2224     5.4811    -1.4018 H            1    LIG   0.0000
@<TRIPOS>BOND
   1        1        2 1
   2        2        3 1
   3        2        4 2
   4        4        5 1
   5        5        6 1
   6        6        7 1
   7        7        8 ar
   8        8        9 ar
   9        9       10 ar
  10       10       11 ar
  11       11       12 ar
  12       12        7 ar
  13       12       13 1
  14       13       14 1
  15       14       15 1
  16        1       16 1
  17        1       17 1
  18        1       18 1
  19        3       19 1
  20        3       20 1
  21        3       21 1
  22        4       22 1
  23        5       23 1
  24        5       24 1
  25        8       25 1
  26        9       26 1
  27       10       27 1
  28       11       28 1
  29       13       29 1
  30       13       30 1
  31       14       31 1
  32       14       32 1
  33       15       33 1

@<TRIPOS>MOLECULE

  33   33
SMALL
USER_CHARGES
@<TRIPOS>ATOM
   1 C1          -2.0447    -0.9243    -0.2649 C.3          1    LIG   0.0000
   2 C2          -0.7266    -1.1502    -0.9874 C.2          1    LIG   0.0000
   3 C3          -0.7201    -1.7224    -2.3956 C.3          1    LIG   0.0000
   4 C4           0.3952    -0.8539    -0.4010 C.2          1    LIG   0.0000
   5 C5           0.3887    -0.2817     1.0071 C.3          1    LIG   0.0000
   6 O6           1.0000     1.0000     1.0000 O.3          1    LIG   0.0000
   7 C7           2.3508     1.0000     1.0000 C.ar         1    LIG   0.0000
   8 C8           3.0284    -0.2142     1.0054 C.ar         1    LIG   0.0000
   9 C9           4.4191    -0.2345     1.0063 C.ar         1    LIG   0.0000
  10 C10          5.1319     0.9597     1.0006 C.ar         1    LIG   0.0000
  11 C11          4.4540     2.1742     0.9938 C.ar         1    LIG   0.0000
  12 C12          3.0635     2.1944     0.9934 C.ar         1    LIG   0.0000
  13 C13          2.3231     3.5212     0.9856 C.3          1    LIG   0.0000
  14 C14          2.0766     3.9555    -0.4500 C.3          1    LIG   0.0000
  15 O15          1.3846     5.1954    -0.4573 O.3          1    LIG   0.0000
  16 H           -2.8011    -1.2037    -0.8563 H            1    LIG   0.0000
  17 H           -2.0611    -1.4658     0.5756 H            1    LIG   0.0000
  18 H           -2.1390     0.0452    -0.0388 H            1    LIG   0.0000
  19 H           -1.6604    -1.8911    -2.6912 H            1    LIG   0.0000
  20 H           -0.2868    -1.0708    -3.0182 H            1    LIG   0.0000
  21 H           -0.2089    -2.5818    -2.4038 H            1    LIG   0.0000
  22 H            1.2623    -1.0025    -0.8764 H            1    LIG   0.0000
  23 H           -0.5545    -0.1993     1.3291 H            1    LIG   0.0000
  24 H            0.8970    -0.8901     1.6165 H            1    LIG   0.0000
  25 H            2.5158    -1.0728     1.0085 H            1    LIG   0.0000
  26 H            4.9064    -1.1077     1.0111 H            1    LIG   0.0000
  27 H            6.1318     0.9452     1.0014 H            1    LIG   0.0000
  28 H            4.9665     3.0328     0.9891 H            1    LIG   0.0000
  29 H            2.8735     4.2128     1.4532 H            1    LIG   0.0000
  30 H            1.4475     3.4171     1.4574 H            1    LIG   0.0000
  31 H            2.9521     4.0596    -0.9218 H            1    LIG   0.0000
  32 H            1.5261     3.2638    -0.9176 H            1    LIG   0.0000
  33 H            1.2224     5.4811    -1.4018 H            1    LIG   0.0000
@<TRIPOS>BOND
   1        1        2 1
   2        2        3 1
   3        2        4 2
   4        4        5 1
   5        5        6 1
   6        6        7 1
   7        7        8 ar
   8        8        9 ar
   9        9       10 ar
  10       10       11 ar
  11       11       12 ar
  12       12        7 ar
  13       12       13 1
  14       13       14 1
  15       14       15 1
  16        1       16 1
  17        1       17 1
  18        1       18 1
  19        3       19 1
  20        3       20 1
  21        3       21 1
  22        4       22 1
  23        5       23 1
  24        5       24 1
  25        8       25 1
  26        9       26 1
  27       10       27 1
  28       11       28 1
  29       13       29 1
  30       13       30 1
  31       14       31 1
  32       14       32 1
  33       15       33 1

@<TRIPOS>MOLECULE

  33   33
SMALL
USER_CHARGES
@<TRIPOS>ATOM
   1 C1           0.2800    -2.0138     3.2298 C.3          1    LIG   0.0000
   2 C2          -0.8704    -1.0597     2.9528 C.2          1    LIG   0.0000
   3 C3          -2.0794    -1.0393     3.8739 C.3          1    LIG   0.0000
   4 C4          -0.8203    -0.2612     1.9282 C.2          1    LIG   0.0000
   5 C5           0.3887    -0.2817     1.0071 C.3          1    LIG   0.0000
   6 O6           1.0000     1.0000     1.0000 O.3          1    LIG   0.0000
   7 C7           2.3508     1.0000     1.0000 C.ar         1    LIG   0.0000
   8 C8           3.0284    -0.1027     0.4917 C.ar         1    LIG   0.0000
   9 C9           4.4191    -0.1215     0.4840 C.ar         1    LIG   0.0000
  10 C10          5.1319     0.9632     0.9835 C.ar         1    LIG   0.0000
  11 C11          4.4540     2.0668     1.4906 C.ar         1    LIG   0.0000
  12 C12          3.0635     2.0853     1.4988 C.ar         1    LIG   0.0000
  13 C13          2.3231     3.2911     2.0525 C.3          1    LIG   0.0000
  14 C14          2.0758     3.0949     3.5393 C.3          1    LIG   0.0000
  15 O15          1.3838     4.2218     4.0568 O.3          1    LIG   0.0000
  16 H            0.0784    -2.5500     4.0494 H            1    LIG   0.0000
  17 H            0.3984    -2.6285     2.4500 H            1    LIG   0.0000
  18 H            1.1202    -1.4904     3.3722 H            1    LIG   0.0000
  19 H           -1.9535    -1.7109     4.6041 H            1    LIG   0.0000
  20 H           -2.1791    -0.1278     4.2728 H            1    LIG   0.0000
  21 H           -2.9009    -1.2659     3.3506 H            1    LIG   0.0000
  22 H           -1.5772     0.3664     1.7459 H            1    LIG   0.0000
  23 H            1.0448    -0.9621     1.3333 H            1    LIG   0.0000
  24 H            0.0974    -0.5172     0.0799 H            1    LIG   0.0000
  25 H            2.5158    -0.8822     0.1317 H            1    LIG   0.0000
  26 H            4.9064    -0.9149     0.1193 H            1    LIG   0.0000
  27 H            6.1318     0.9498     0.9781 H            1    LIG   0.0000
  28 H            4.9665     2.8469     1.8493 H            1    LIG   0.0000
  29 H            1.4478     3.3909     1.5793 H            1    LIG   0.0000
  30 H            2.8738     4.1139     1.9118 H            1    LIG   0.0000
  31 H            1.5251     2.2721     3.6800 H            1    LIG   0.0000
  32 H            2.9511     2.9951     4.0125 H            1    LIG   0.0000
  33 H            1.2211     4.0927     5.0350 H            1    LIG   0.0000
@<TRIPOS>BOND
   1        1        2 1
   2        2        3 1
   3        2        4 2
   4        4        5 1
   5        5        6 1
   6        6        7 1
   7        7        8 ar
   8        8        9 ar
   9        9       10 ar
  10       10       11 ar
  11       11       12 ar
  12       12        7 ar
  13       12       13 1
  14       13       14 1
  15       14       15 1
  16        1       16 1
  17        1       17 1
  18        1       18 1
  19        3       19 1
  20        3       20 1
  21        3       21 1
  22        4       22 1
  23        5       23 1
  24        5       24 1
  25        8       25 1
  26        9       26 1
  27       10       27 1
  28       11       28 1
  29       13       29 1
  30       13       30 1
  31       14       31 1
  32       14       32 1
  33       15       33 1

@<TRIPOS>MOLECULE

  33   33
SMALL
USER_CHARGES
@<TRIPOS>ATOM
   1 C1          -2.1741    -0.8612    -0.0170 C.3          1    LIG   0.0000
   2 C2          -2.0017    -0.5284     1.4561 C.2          1    LIG   0.0000
   3 C3          -3.2107    -0.5080     2.3771 C.3          1    LIG   0.0000
   4 C4          -0.8203    -0.2612     1.9282 C.2          1    LIG   0.0000
   5 C5           0.3887    -0.2817     1.0071 C.3          1    LIG   0.0000
   6 O6           1.0000     1.0000     1.0000 O.3          1    LIG   0.0000
   7 C7           2.3508     1.0000     1.0000 C.ar         1    LIG   0.0000
   8 C8           3.0284    -0.1027     0.4917 C.ar         1    LIG   0.0000
   9 C9           4.4191    -0.1215     0.4840 C.ar         1    LIG   0.0000
  10 C10          5.1319     0.9632     0.9835 C.ar         1    LIG   0.0000
  11 C11          4.4540     2.0668     1.4906 C.ar         1    LIG   0.0000
  12 C12          3.0635     2.0853     1.4988 C.ar         1    LIG   0.0000
  13 C13          2.3231     3.2911     2.0525 C.3          1    LIG   0.0000
  14 C14          2.0758     3.0949     3.5393 C.3          1    LIG   0.0000
  15 O15          1.3838     4.2218     4.0568 O.3          1    LIG   0.0000
  16 H           -3.1395    -1.0388    -0.2079 H            1    LIG   0.0000
  17 H           -1.8609    -0.0904    -0.5718 H            1    LIG   0.0000
  18 H           -1.6352    -1.6734    -0.2405 H            1    LIG   0.0000
  19 H           -4.0322    -0.7346     1.8539 H            1    LIG   0.0000
  20 H           -3.0848    -1.1795     3.1073 H            1    LIG   0.0000
  21 H           -3.3104     0.4035     2.7761 H            1    LIG   0.0000
  22 H           -0.7069    -0.0423     2.8973 H            1    LIG   0.0000
  23 H            1.0448    -0.9621     1.3333 H            1    LIG   0.0000
  24 H            0.0974    -0.5172     0.0799 H            1    LIG   0.0000
  25 H            2.5158    -0.8822     0.1317 H            1    LIG   0.0000
  26 H            4.9064    -0.9149     0.1193 H            1    LIG   0.0000
  27 H            6.1318     0.9498     0.9781 H            1    LIG   0.0000
  28 H            4.9665     2.8469     1.8493 H            1    LIG   0.0000
  29 H            1.4478     3.3909     1.5793 H            1    LIG   0.0000
  30 H            2.8738     4.1139     1.9118 H            1    LIG   0.0000
  31 H            1.5251     2.2721     3.6800 H            1    LIG   0.0000
  32 H            2.9511     2.9951     4.0125 H            1    LIG   0.0000
  33 H            1.2211     4.0927     5.0350 H            1    LIG   0.0000
@<TRIPOS>BOND
   1        1        2 1
   2        2        3 1
   3        2        4 2
   4        4        5 1
   5        5        6 1
   6        6        7 1
   7        7        8 ar
   8        8        9 ar
   9        9       10 ar
  10       10       11 ar
  11       11       12 ar
  12       12        7 ar
  13       12       13 1
  14       13       14 1
  15       14       15 1
  16        1       16 1
  17        1       17 1
  18        1       18 1
  19        3       19 1
  20        3       20 1
  21        3       21 1
  22        4       22 1
  23        5       23 1
  24        5       24 1
  25        8       25 1
  26        9       26 1
  27       10       27 1
  28       11       28 1
  29       13       29 1
  30       13       30 1
  31       14       31 1
  32       14       32 1
  33       15       33 1

@<TRIPOS>MOLECULE

  33   33
SMALL
USER_CHARGES
@<TRIPOS>ATOM
   1 C1          -2.1741    -0.8498     2.0376 C.3          1    LIG   0.0000
   2 C2          -2.0017    -0.5334     0.5609 C.2          1    LIG   0.0000
   3 C3          -3.2107    -0.5232    -0.3603 C.3          1    LIG   0.0000
   4 C4          -0.8203    -0.2715     0.0859 C.2          1    LIG   0.0000
   5 C5           0.3887    -0.2817     1.0071 C.3          1    LIG   0.0000
   6 O6           1.0000     1.0000     1.0000 O.3          1    LIG   0.0000
   7 C7           2.3508     1.0000     1.0000 C.ar         1    LIG   0.0000
   8 C8           3.0284    -0.0981     1.5180 C.ar         1    LIG   0.0000
   9 C9           4.4191    -0.1162     1.5274 C.ar         1    LIG   0.0000
  10 C10          5.1319     0.9637     1.0176 C.ar         1    LIG   0.0000
  11 C11          4.4540     2.0615     0.4981 C.ar         1    LIG   0.0000
  12 C12          3.0635     2.0797     0.4892 C.ar         1    LIG   0.0000
  13 C13          2.3231     3.2789    -0.0785 C.3          1    LIG   0.0000
  14 C14          2.0766     3.0658    -1.5632 C.3          1    LIG   0.0000
  15 O15          1.3846     4.1865    -2.0938 O.3          1    LIG   0.0000
  16 H           -3.1395    -1.0252     2.2304 H            1    LIG   0.0000
  17 H           -1.6352    -1.6595     2.2701 H            1    LIG   0.0000
  18 H           -1.8609    -0.0729     2.5838 H            1    LIG   0.0000
  19 H           -4.0322    -0.7439     0.1654 H            1    LIG   0.0000
  20 H           -3.3104     0.3839    -0.7694 H            1    LIG   0.0000
  21 H           -3.0848    -1.2028    -1.0830 H            1    LIG   0.0000
  22 H           -0.7069    -0.0633    -0.8856 H            1    LIG   0.0000
  23 H            0.0974    -0.5069     1.9369 H            1    LIG   0.0000
  24 H            1.0448    -0.9657     0.6884 H            1    LIG   0.0000
  25 H            2.5158    -0.8750     1.8837 H            1    LIG   0.0000
  26 H            4.9064    -0.9055     1.9008 H            1    LIG   0.0000
  27 H            6.1318     0.9509     1.0244 H            1    LIG   0.0000
  28 H            4.9665     2.8378     0.1311 H            1    LIG   0.0000
  29 H            2.8735     4.1034     0.0530 H            1    LIG   0.0000
  30 H            1.4475     3.3839     0.3930 H            1    LIG   0.0000
  31 H            2.9521     2.9608    -2.0348 H            1    LIG   0.0000
  32 H            1.5261     2.2413    -1.6947 H            1    LIG   0.0000
  33 H            1.2224     4.0463    -3.0705 H            1    LIG   0.0000
@<TRIPOS>BOND
   1        1        2 1
   2        2        3 1
   3        2        4 2
   4        4        5 1
   5        5        6 1
   6        6        7 1
   7        7        8 ar
   8        8        9 ar
   9        9       10 ar
  10       10       11 ar
  11       11       12 ar
  12       12        7 ar
  13       12       13 1
  14       13       14 1
  15       14       15 1
  16        1       16 1
  17        1       17 1
  18        1       18 1
  19        3       19 1
  20        3       20 1
  21        3       21 1
  22        4       22 1
  23        5       23 1
  24        5       24 1
  25        8       25 1
  26        9       26 1
  27       10       27 1
  28       11       28 1
  29       13       29 1
  30       13       30 1
  31       14       31 1
  32       14       32 1
  33       15       33 1

@<TRIPOS>MOLECULE

  33   33
SMALL
USER_CHARGES
@<TRIPOS>ATOM
   1 C1           0.2800    -2.0383    -1.1962 C.3          1    LIG   0.0000
   2 C2          -0.8704    -1.0813    -0.9299 C.2          1    LIG   0.0000
   3 C3          -2.0794    -1.0711    -1.8511 C.3          1    LIG   0.0000
   4 C4          -0.8203    -0.2715     0.0859 C.2          1    LIG   0.0000
   5 C5           0.3887    -0.2817     1.0071 C.3          1    LIG   0.0000
   6 O6           1.0000     1.0000     1.0000 O.3          1    LIG   0.0000
   7 C7           2.3508     1.0000     1.0000 C.ar         1    LIG   0.0000
   8 C8           3.0284    -0.0981     1.5180 C.ar         1    LIG   0.0000
   9 C9           4.4191    -0.1162     1.5274 C.ar         1    LIG   0.0000
  10 C10          5.1319     0.9637     1.0176 C.ar         1    LIG   0.0000
  11 C11          4.4540     2.0615     0.4981 C.ar         1    LIG   0.0000
  12 C12          3.0635     2.0797     0.4892 C.ar         1    LIG   0.0000
  13 C13          2.3231     3.2789    -0.0785 C.3          1    LIG   0.0000
  14 C14          2.0766     3.0658    -1.5632 C.3          1    LIG   0.0000
  15 O15          1.3846     4.1865    -2.0938 O.3          1    LIG   0.0000
  16 H            0.0784    -2.5836    -2.0099 H            1    LIG   0.0000
  17 H            1.1202    -1.5166    -1.3444 H            1    LIG   0.0000
  18 H            0.3984    -2.6444    -0.4097 H            1    LIG   0.0000
  19 H           -1.9535    -1.7506    -2.5738 H            1    LIG   0.0000
  20 H           -2.9009    -1.2918    -1.3254 H            1    LIG   0.0000
  21 H           -2.1791    -0.1640    -2.2601 H            1    LIG   0.0000
  22 H           -1.5772     0.3582     0.2611 H            1    LIG   0.0000
  23 H            0.0974    -0.5069     1.9369 H            1    LIG   0.0000
  24 H            1.0448    -0.9657     0.6884 H            1    LIG   0.0000
  25 H            2.5158    -0.8750     1.8837 H            1    LIG   0.0000
  26 H            4.9064    -0.9055     1.9008 H            1    LIG   0.0000
  27 H            6.1318     0.9509     1.0244 H            1    LIG   0.0000
  28 H            4.9665     2.8378     0.1311 H            1    LIG   0.0000
  29 H            2.8735     4.1034     0.0530 H            1    LIG   0.0000
  30 H            1.4475     3.3839     0.3930 H            1    LIG   0.0000
  31 H            2.9521     2.9608    -2.0348 H            1    LIG   0.0000
  32 H            1.5261     2.2413    -1.6947 H            1    LIG   0.0000
  33 H            1.2224     4.0463    -3.0705 H            1    LIG   0.0000
@<TRIPOS>BOND
   1        1        2 1
   2        2        3 1
   3        2        4 2
   4        4        5 1
   5        5        6 1
   6        6        7 1
   7        7        8 ar
   8        8        9 ar
   9        9       10 ar
  10       10       11 ar
  11       11       12 ar
  12       12        7 ar
  13       12       13 1
  14       13       14 1
  15       14       15 1
  16        1       16 1
  17        1       17 1
  18        1       18 1
  19        3       19 1
  20        3       20 1
  21        3       21 1
  22        4       22 1
  23        5       23 1
  24        5       24 1
  25        8       25 1
  26        9       26 1
  27       10       27 1
  28       11       28 1
  29       13       29 1
  30       13       30 1
  31       14       31 1
  32       14       32 1
  33       15       33 1

