@<TRIPOS>MOLECULE
*****
 33 33 0 0 0
SMALL
USER_CHARGES

@<TRIPOS>ATOM
      1 C1         -1.1418   -1.3362    3.1280 C.3     1  LIG1        0.0000
      2 C2         -1.8284   -0.6081    1.9839 C.2     1  LIG1        0.0000
      3 C3         -3.3400   -0.4485    1.9830 C.3     1  LIG1        0.0000
      4 C4         -1.1229   -0.1220    1.0062 C.2     1  LIG1        0.0000
      5 C5          0.3887   -0.2817    1.0071 C.3     1  LIG1        0.0000
      6 O6          1.0000    1.0000    1.0000 O.3     1  LIG1        0.0000
      7 C7          2.3508    1.0000    1.0000 C.ar    1  LIG1        0.0000
      8 C8          3.0284   -0.2142    1.0054 C.ar    1  LIG1        0.0000
      9 C9          4.4191   -0.2345    1.0063 C.ar    1  LIG1        0.0000
     10 C10         5.1319    0.9597    1.0006 C.ar    1  LIG1        0.0000
     11 C11         4.4540    2.1742    0.9938 C.ar    1  LIG1        0.0000
     12 C12         3.0635    2.1944    0.9934 C.ar    1  LIG1        0.0000
     13 C13         2.3231    3.5212    0.9856 C.3     1  LIG1        0.0000
     14 C14         2.0758    3.9718    2.4161 C.3     1  LIG1        0.0000
     15 O15         1.3838    5.2118    2.4088 O.3     1  LIG1        0.0000
     16 H          -1.8279   -1.6422    3.7879 H       1  LIG1        0.0000
     17 H          -0.6471   -2.1281    2.7700 H       1  LIG1        0.0000
     18 H          -0.4986   -0.7172    3.5787 H       1  LIG1        0.0000
     19 H          -3.7210   -0.8777    2.8019 H       1  LIG1        0.0000
     20 H          -3.5725    0.5241    1.9777 H       1  LIG1        0.0000
     21 H          -3.7210   -0.8868    1.1690 H       1  LIG1        0.0000
     22 H          -1.5747    0.3570    0.2536 H       1  LIG1        0.0000
     23 H           0.6707   -0.7809    1.8264 H       1  LIG1        0.0000
     24 H           0.6707   -0.7900    0.1934 H       1  LIG1        0.0000
     25 H           2.5158   -1.0728    1.0085 H       1  LIG1        0.0000
     26 H           4.9064   -1.1077    1.0111 H       1  LIG1        0.0000
     27 H           6.1318    0.9452    1.0014 H       1  LIG1        0.0000
     28 H           4.9665    3.0328    0.9891 H       1  LIG1        0.0000
     29 H           1.4478    3.4117    0.5146 H       1  LIG1        0.0000
     30 H           2.8738    4.2075    0.5104 H       1  LIG1        0.0000
     31 H           1.5251    3.2855    2.8913 H       1  LIG1        0.0000
     32 H           2.9511    4.0813    2.8871 H       1  LIG1        0.0000
     33 H           1.2211    5.5082    3.3499 H       1  LIG1        0.0000
@<TRIPOS>BOND
     1     1     2    1
     2     2     3    1
     3     2     4    2
     4     4     5    1
     5     5     6    1
     6     6     7    1
     7     7     8   ar
     8     8     9   ar
     9     9    10   ar
    10    10    11   ar
    11    11    12   ar
    12    12     7   ar
    13    12    13    1
    14    13    14    1
    15    14    15    1
    16     1    16    1
    17     1    17    1
    18     1    18    1
    19     3    19    1
    20     3    20    1
    21     3    21    1
    22     4    22    1
    23     5    23    1
    24     5    24    1
    25     8    25    1
    26     9    26    1
    27    10    27    1
    28    11    28    1
    29    13    29    1
    30    13    30    1
    31    14    31    1
    32    14    32    1
    33    15    33    1
