@<TRIPOS>MOLECULE
*****
 33 33 0 0 0
SMALL
USER_CHARGES

@<TRIPOS>ATOM
      1 C1          0.2800   -2.0138    3.2298 C.3     1  LIG1        0.0000
      2 C2         -0.8704   -1.0597    2.9528 C.2     1  LIG1        0.0000
      3 C3         -2.0794   -1.0393    3.8739 C.3     1  LIG1        0.0000
      4 C4         -0.8203   -0.2612    1.9282 C.2     1  LIG1        0.0000
      5 C5          0.3887   -0.2817    1.0071 C.3     1  LIG1        0.0000
      6 O6          1.0000    1.0000    1.0000 O.3     1  LIG1        0.0000
      7 C7          2.3508    1.0000    1.0000 C.ar    1  LIG1        0.0000
      8 C8          3.0284   -0.1027    0.4917 C.ar    1  LIG1        0.0000
      9 C9          4.4191   -0.1215    0.4840 C.ar    1  LIG1        0.0000
     10 C10         5.1319    0.9632    0.9835 C.ar    1  LIG1        0.0000
     11 C11         4.4540    2.0668    1.4906 C.ar    1  LIG1        0.0000
     12 C12         3.0635    2.0853    1.4988 C.ar    1  LIG1        0.0000
     13 C13         2.3231    3.2911    2.0525 C.3     1  LIG1        0.0000
     14 C14         2.0758    3.0949    3.5393 C.3     1  LIG1        0.0000
     15 O15         1.3838    4.2218    4.0568 O.3     1  LIG1        0.0000
     16 H           0.0784   -2.5500    4.0494 H       1  LIG1        0.0000
     17 H           0.3984   -2.6285    2.4500 H       1  LIG1        0.0000
     18 H           1.1202   -1.4904    3.3722 H       1  LIG1        0.0000
     19 H          -1.9535   -1.7109    4.6041 H       1  LIG1        0.0000
     20 H          -2.1791   -0.1278    4.2728 H       1  LIG1        0.0000
     21 H          -2.9009   -1.2659    3.3506 H       1  LIG1        0.0000
     22 H          -1.5772    0.3664    1.7459 H       1  LIG1        0.0000
     23 H           1.0448   -0.9621    1.3333 H       1  LIG1        0.0000
     24 H           0.0974   -0.5172    0.0799 H       1  LIG1        0.0000
     25 H           2.5158   -0.8822    0.1317 H       1  LIG1        0.0000
     26 H           4.9064   -0.9149    0.1193 H       1  LIG1        0.0000
     27 H           6.1318    0.9498    0.9781 H       1  LIG1        0.0000
     28 H           4.9665    2.8469    1.8493 H       1  LIG1        0.0000
     29 H           1.4478    3.3909    1.5793 H       1  LIG1        0.0000
     30 H           2.8738    4.1139    1.9118 H       1  LIG1        0.0000
     31 H           1.5251    2.2721    3.6800 H       1  LIG1        0.0000
     32 H           2.9511    2.9951    4.0125 H       1  LIG1        0.0000
     33 H           1.2211    4.0927    5.0350 H       1  LIG1        0.0000
@<TRIPOS>BOND
     1     1     2    1
     2     2     3    1
     3     2     4    2
     4     4     5    1
     5     5     6    1
     6     6     7    1
     7     7     8   ar
     8     8     9   ar
     9     9    10   ar
    10    10    11   ar
    11    11    12   ar
    12    12     7   ar
    13    12    13    1
    14    13    14    1
    15    14    15    1
    16     1    16    1
    17     1    17    1
    18     1    18    1
    19     3    19    1
    20     3    20    1
    21     3    21    1
    22     4    22    1
    23     5    23    1
    24     5    24    1
    25     8    25    1
    26     9    26    1
    27    10    27    1
    28    11    28    1
    29    13    29    1
    30    13    30    1
    31    14    31    1
    32    14    32    1
    33    15    33    1
