@<TRIPOS>MOLECULE
*****
 33 33 0 0 0
SMALL
USER_CHARGES

@<TRIPOS>ATOM
      1 C1          0.2800   -2.0383   -1.1962 C.3     1  LIG1        0.0000
      2 C2         -0.8704   -1.0813   -0.9299 C.2     1  LIG1        0.0000
      3 C3         -2.0794   -1.0711   -1.8511 C.3     1  LIG1        0.0000
      4 C4         -0.8203   -0.2715    0.0859 C.2     1  LIG1        0.0000
      5 C5          0.3887   -0.2817    1.0071 C.3     1  LIG1        0.0000
      6 O6          1.0000    1.0000    1.0000 O.3     1  LIG1        0.0000
      7 C7          2.3508    1.0000    1.0000 C.ar    1  LIG1        0.0000
      8 C8          3.0284   -0.0981    1.5180 C.ar    1  LIG1        0.0000
      9 C9          4.4191   -0.1162    1.5274 C.ar    1  LIG1        0.0000
     10 C10         5.1319    0.9637    1.0176 C.ar    1  LIG1        0.0000
     11 C11         4.4540    2.0615    0.4981 C.ar    1  LIG1        0.0000
     12 C12         3.0635    2.0797    0.4892 C.ar    1  LIG1        0.0000
     13 C13         2.3231    3.2789   -0.0785 C.3     1  LIG1        0.0000
     14 C14         2.0766    3.0658   -1.5632 C.3     1  LIG1        0.0000
     15 O15         1.3846    4.1865   -2.0938 O.3     1  LIG1        0.0000
     16 H           0.0784   -2.5836   -2.0099 H       1  LIG1        0.0000
     17 H           1.1202   -1.5166   -1.3444 H       1  LIG1        0.0000
     18 H           0.3984   -2.6444   -0.4097 H       1  LIG1        0.0000
     19 H          -1.9535   -1.7506   -2.5738 H       1  LIG1        0.0000
     20 H          -2.9009   -1.2918   -1.3254 H       1  LIG1        0.0000
     21 H          -2.1791   -0.1640   -2.2601 H       1  LIG1        0.0000
     22 H          -1.5772    0.3582    0.2611 H       1  LIG1        0.0000
     23 H           0.0974   -0.5069    1.9369 H       1  LIG1        0.0000
     24 H           1.0448   -0.9657    0.6884 H       1  LIG1        0.0000
     25 H           2.5158   -0.8750    1.8837 H       1  LIG1        0.0000
     26 H           4.9064   -0.9055    1.9008 H       1  LIG1        0.0000
     27 H           6.1318    0.9509    1.0244 H       1  LIG1        0.0000
     28 H           4.9665    2.8378    0.1311 H       1  LIG1        0.0000
     29 H           2.8735    4.1034    0.0530 H       1  LIG1        0.0000
     30 H           1.4475    3.3839    0.3930 H       1  LIG1        0.0000
     31 H           2.9521    2.9608   -2.0348 H       1  LIG1        0.0000
     32 H           1.5261    2.2413   -1.6947 H       1  LIG1        0.0000
     33 H           1.2224    4.0463   -3.0705 H       1  LIG1        0.0000
@<TRIPOS>BOND
     1     1     2    1
     2     2     3    1
     3     2     4    2
     4     4     5    1
     5     5     6    1
     6     6     7    1
     7     7     8   ar
     8     8     9   ar
     9     9    10   ar
    10    10    11   ar
    11    11    12   ar
    12    12     7   ar
    13    12    13    1
    14    13    14    1
    15    14    15    1
    16     1    16    1
    17     1    17    1
    18     1    18    1
    19     3    19    1
    20     3    20    1
    21     3    21    1
    22     4    22    1
    23     5    23    1
    24     5    24    1
    25     8    25    1
    26     9    26    1
    27    10    27    1
    28    11    28    1
    29    13    29    1
    30    13    30    1
    31    14    31    1
    32    14    32    1
    33    15    33    1
