@<TRIPOS>MOLECULE

  51   55
SMALL
USER_CHARGES
@<TRIPOS>ATOM
   1 C1           0.5561    -1.5827     7.2994 C.3          1    LIG   0.0000
   2 O2           1.6724    -2.1558     6.6345 O.3          1    LIG   0.0000
   3 C3           2.0648    -1.5242     5.5076 C.ar         1    LIG   0.0000
   4 C4           3.1505    -2.0162     4.7909 C.ar         1    LIG   0.0000
   5 C5           3.5497    -1.3614     3.6306 C.ar         1    LIG   0.0000
   6 C6           2.8655    -0.2281     3.2013 C.ar         1    LIG   0.0000
   7 C7           3.2891     0.4476     1.9896 C.2          1    LIG   0.0000
   8 N8           4.5244     0.6583     1.6060 N.2          1    LIG   0.0000
   9 N9           4.5302     1.3018     0.4584 N.pl3        1    LIG   0.0000
  10 C10          5.6778     1.6938    -0.2417 C.ar         1    LIG   0.0000
  11 C11          6.9345     1.4017     0.2781 C.ar         1    LIG   0.0000
  12 C12          8.0690     1.7956    -0.4237 C.ar         1    LIG   0.0000
  13 C13          7.9399     2.4736    -1.6320 C.ar         1    LIG   0.0000
  14 C14          6.6791     2.7613    -2.1445 C.ar         1    LIG   0.0000
  15 C15          5.5391     2.3715    -1.4486 C.ar         1    LIG   0.0000
  16 C16          3.2559     1.5332     0.0419 C.2          1    LIG   0.0000
  17 C17          2.4509     1.0000     1.0000 C.2          1    LIG   0.0000
  18 C18          1.0000     1.0000     1.0000 C.2          1    LIG   0.0000
  19 N19          0.3750     2.0824     0.9843 N.2          1    LIG   0.0000
  20 N20          1.1690     3.1752     0.9684 N.pl3        1    LIG   0.0000
  21 C21          1.5502     3.6831    -0.2482 C.2          1    LIG   0.0000
  22 C22          1.1151     3.0653    -1.5672 C.3          1    LIG   0.0000
  23 N23          2.3246     4.7469    -0.3036 N.2          1    LIG   0.0000
  24 C24          2.7117     5.2972     0.8861 C.2          1    LIG   0.0000
  25 S25          3.7047     6.6675     1.0493 S.3          1    LIG   0.0000
  26 C26          3.7415     6.7412     2.7529 C.2          1    LIG   0.0000
  27 C27          2.9773     5.6935     3.1749 C.2          1    LIG   0.0000
  28 C28          2.4068     4.8916     2.1436 C.2          1    LIG   0.0000
  29 C29          1.5724     3.7476     2.1491 C.2          1    LIG   0.0000
  30 O30          1.1999     3.2490     3.2005 O.2          1    LIG   0.0000
  31 C31          1.7814     0.2567     3.9251 C.ar         1    LIG   0.0000
  32 C32          1.3745    -0.3928     5.0861 C.ar         1    LIG   0.0000
  33 H            0.3440    -2.1184     8.1168 H            1    LIG   0.0000
  34 H            0.7720    -0.6427     7.5636 H            1    LIG   0.0000
  35 H           -0.2337    -1.5836     6.6860 H            1    LIG   0.0000
  36 H            3.6379    -2.8305     5.1059 H            1    LIG   0.0000
  37 H            4.3281    -1.7047     3.1051 H            1    LIG   0.0000
  38 H            7.0214     0.9140     1.1468 H            1    LIG   0.0000
  39 H            8.9778     1.5914    -0.0598 H            1    LIG   0.0000
  40 H            8.7573     2.7555    -2.1343 H            1    LIG   0.0000
  41 H            6.5920     3.2484    -3.0135 H            1    LIG   0.0000
  42 H            4.6303     2.5763    -1.8119 H            1    LIG   0.0000
  43 H            2.9700     1.9990    -0.7955 H            1    LIG   0.0000
  44 H            0.5000     0.1341     1.0126 H            1    LIG   0.0000
  45 H            0.5351     2.2706    -1.3878 H            1    LIG   0.0000
  46 H            0.6018     3.7396    -2.0979 H            1    LIG   0.0000
  47 H            1.9223     2.7791    -2.0835 H            1    LIG   0.0000
  48 H            4.2211     7.4100     3.3210 H            1    LIG   0.0000
  49 H            2.8270     5.5004     4.1445 H            1    LIG   0.0000
  50 H            1.2946     1.0719     3.6111 H            1    LIG   0.0000
  51 H            0.5953    -0.0505     5.6111 H            1    LIG   0.0000
@<TRIPOS>BOND
   1        1        2 1
   2        2        3 1
   3        3        4 ar
   4        4        5 ar
   5        5        6 ar
   6        6        7 1
   7        7        8 2
   8        8        9 1
   9        9       10 1
  10       10       11 ar
  11       11       12 ar
  12       12       13 ar
  13       13       14 ar
  14       14       15 ar
  15       15       10 ar
  16        9       16 1
  17       16       17 2
  18       17        7 1
  19       17       18 1
  20       18       19 2
  21       19       20 1
  22       20       21 1
  23       21       22 1
  24       21       23 2
  25       23       24 1
  26       24       25 1
  27       25       26 1
  28       26       27 2
  29       27       28 1
  30       28       24 2
  31       28       29 1
  32       29       20 1
  33       29       30 2
  34        6       31 ar
  35       31       32 ar
  36       32        3 ar
  37        1       33 1
  38        1       34 1
  39        1       35 1
  40        4       36 1
  41        5       37 1
  42       11       38 1
  43       12       39 1
  44       13       40 1
  45       14       41 1
  46       15       42 1
  47       16       43 1
  48       18       44 1
  49       22       45 1
  50       22       46 1
  51       22       47 1
  52       26       48 1
  53       27       49 1
  54       31       50 1
  55       32       51 1

@<TRIPOS>MOLECULE

  51   55
SMALL
USER_CHARGES
@<TRIPOS>ATOM
   1 C1           0.5576    -3.0047     6.5069 C.3          1    LIG   0.0000
   2 O2           1.6761    -2.1407     6.6442 O.3          1    LIG   0.0000
   3 C3           2.0675    -1.5125     5.5150 C.ar         1    LIG   0.0000
   4 C4           3.1552    -0.6467     5.5563 C.ar         1    LIG   0.0000
   5 C5           3.5538    -0.0030     4.3897 C.ar         1    LIG   0.0000
   6 C6           2.8655    -0.2281     3.2013 C.ar         1    LIG   0.0000
   7 C7           3.2891     0.4476     1.9896 C.2          1    LIG   0.0000
   8 N8           4.5244     0.6583     1.6060 N.2          1    LIG   0.0000
   9 N9           4.5302     1.3018     0.4584 N.pl3        1    LIG   0.0000
  10 C10          5.6778     1.6938    -0.2417 C.ar         1    LIG   0.0000
  11 C11          6.9345     1.4017     0.2781 C.ar         1    LIG   0.0000
  12 C12          8.0690     1.7956    -0.4237 C.ar         1    LIG   0.0000
  13 C13          7.9399     2.4736    -1.6320 C.ar         1    LIG   0.0000
  14 C14          6.6791     2.7613    -2.1445 C.ar         1    LIG   0.0000
  15 C15          5.5391     2.3715    -1.4486 C.ar         1    LIG   0.0000
  16 C16          3.2559     1.5332     0.0419 C.2          1    LIG   0.0000
  17 C17          2.4509     1.0000     1.0000 C.2          1    LIG   0.0000
  18 C18          1.0000     1.0000     1.0000 C.2          1    LIG   0.0000
  19 N19          0.3750     2.0824     0.9843 N.2          1    LIG   0.0000
  20 N20          1.1690     3.1752     0.9684 N.pl3        1    LIG   0.0000
  21 C21          1.0612     4.0408    -0.0911 C.2          1    LIG   0.0000
  22 C22          0.0890     3.8157    -1.2379 C.3          1    LIG   0.0000
  23 N23          1.8193     5.1164    -0.1418 N.2          1    LIG   0.0000
  24 C24          2.6909     5.3124     0.8927 C.2          1    LIG   0.0000
  25 S25          3.7579     6.6286     1.0324 S.3          1    LIG   0.0000
  26 C26          4.4841     6.1982     2.5145 C.2          1    LIG   0.0000
  27 C27          3.8843     5.0302     2.8832 C.2          1    LIG   0.0000
  28 C28          2.8919     4.5368     1.9867 C.2          1    LIG   0.0000
  29 C29          2.0533     3.3960     1.9949 C.2          1    LIG   0.0000
  30 O30          2.1031     2.5885     2.9106 O.2          1    LIG   0.0000
  31 C31          1.7785    -1.0952     3.1701 C.ar         1    LIG   0.0000
  32 C32          1.3738    -1.7443     4.3321 C.ar         1    LIG   0.0000
  33 H            0.3464    -3.4199     7.3917 H            1    LIG   0.0000
  34 H           -0.2317    -2.4800     6.1880 H            1    LIG   0.0000
  35 H            0.7704    -3.7226     5.8441 H            1    LIG   0.0000
  36 H            3.6445    -0.4891     6.4140 H            1    LIG   0.0000
  37 H            4.3347     0.6215     4.4048 H            1    LIG   0.0000
  38 H            7.0214     0.9140     1.1468 H            1    LIG   0.0000
  39 H            8.9778     1.5914    -0.0598 H            1    LIG   0.0000
  40 H            8.7573     2.7555    -2.1343 H            1    LIG   0.0000
  41 H            6.5920     3.2484    -3.0135 H            1    LIG   0.0000
  42 H            4.6303     2.5763    -1.8119 H            1    LIG   0.0000
  43 H            2.9700     1.9990    -0.7955 H            1    LIG   0.0000
  44 H            0.5000     0.1341     1.0126 H            1    LIG   0.0000
  45 H           -0.4231     2.9713    -1.0799 H            1    LIG   0.0000
  46 H           -0.5466     4.5858    -1.2920 H            1    LIG   0.0000
  47 H            0.5971     3.7418    -2.0960 H            1    LIG   0.0000
  48 H            5.1975     6.6960     3.0078 H            1    LIG   0.0000
  49 H            4.1250     4.5511     3.7274 H            1    LIG   0.0000
  50 H            1.2881    -1.2520     2.3128 H            1    LIG   0.0000
  51 H            0.5938    -2.3699     4.3170 H            1    LIG   0.0000
@<TRIPOS>BOND
   1        1        2 1
   2        2        3 1
   3        3        4 ar
   4        4        5 ar
   5        5        6 ar
   6        6        7 1
   7        7        8 2
   8        8        9 1
   9        9       10 1
  10       10       11 ar
  11       11       12 ar
  12       12       13 ar
  13       13       14 ar
  14       14       15 ar
  15       15       10 ar
  16        9       16 1
  17       16       17 2
  18       17        7 1
  19       17       18 1
  20       18       19 2
  21       19       20 1
  22       20       21 1
  23       21       22 1
  24       21       23 2
  25       23       24 1
  26       24       25 1
  27       25       26 1
  28       26       27 2
  29       27       28 1
  30       28       24 2
  31       28       29 1
  32       29       20 1
  33       29       30 2
  34        6       31 ar
  35       31       32 ar
  36       32        3 ar
  37        1       33 1
  38        1       34 1
  39        1       35 1
  40        4       36 1
  41        5       37 1
  42       11       38 1
  43       12       39 1
  44       13       40 1
  45       14       41 1
  46       15       42 1
  47       16       43 1
  48       18       44 1
  49       22       45 1
  50       22       46 1
  51       22       47 1
  52       26       48 1
  53       27       49 1
  54       31       50 1
  55       32       51 1

@<TRIPOS>MOLECULE

  51   55
SMALL
USER_CHARGES
@<TRIPOS>ATOM
   1 C1           0.5576    -3.0047     6.5069 C.3          1    LIG   0.0000
   2 O2           1.6761    -2.1407     6.6442 O.3          1    LIG   0.0000
   3 C3           2.0675    -1.5125     5.5150 C.ar         1    LIG   0.0000
   4 C4           3.1552    -0.6467     5.5563 C.ar         1    LIG   0.0000
   5 C5           3.5538    -0.0030     4.3897 C.ar         1    LIG   0.0000
   6 C6           2.8655    -0.2281     3.2013 C.ar         1    LIG   0.0000
   7 C7           3.2891     0.4476     1.9896 C.2          1    LIG   0.0000
   8 N8           4.5244     0.6583     1.6060 N.2          1    LIG   0.0000
   9 N9           4.5302     1.3018     0.4584 N.pl3        1    LIG   0.0000
  10 C10          5.6778     1.6938    -0.2417 C.ar         1    LIG   0.0000
  11 C11          6.9345     1.4017     0.2781 C.ar         1    LIG   0.0000
  12 C12          8.0690     1.7956    -0.4237 C.ar         1    LIG   0.0000
  13 C13          7.9399     2.4736    -1.6320 C.ar         1    LIG   0.0000
  14 C14          6.6791     2.7613    -2.1445 C.ar         1    LIG   0.0000
  15 C15          5.5391     2.3715    -1.4486 C.ar         1    LIG   0.0000
  16 C16          3.2559     1.5332     0.0419 C.2          1    LIG   0.0000
  17 C17          2.4509     1.0000     1.0000 C.2          1    LIG   0.0000
  18 C18          1.0000     1.0000     1.0000 C.2          1    LIG   0.0000
  19 N19          0.3750     2.0824     0.9843 N.2          1    LIG   0.0000
  20 N20          1.1690     3.1752     0.9684 N.pl3        1    LIG   0.0000
  21 C21          1.5511     3.7176     2.1698 C.2          1    LIG   0.0000
  22 C22          1.1161     3.1381     3.5062 C.3          1    LIG   0.0000
  23 N23          2.3241     4.7835     2.1944 N.2          1    LIG   0.0000
  24 C24          2.7113     5.2989     0.9892 C.2          1    LIG   0.0000
  25 S25          3.7054     6.6632     0.7864 S.3          1    LIG   0.0000
  26 C26          3.7406     6.6886    -0.9187 C.2          1    LIG   0.0000
  27 C27          2.9746     5.6304    -1.3102 C.2          1    LIG   0.0000
  28 C28          2.4026     4.8598    -0.2561 C.2          1    LIG   0.0000
  29 C29          1.5724     3.7131    -0.2283 C.2          1    LIG   0.0000
  30 O30          1.1989     3.1850    -1.2648 O.2          1    LIG   0.0000
  31 C31          1.7785    -1.0952     3.1701 C.ar         1    LIG   0.0000
  32 C32          1.3738    -1.7443     4.3321 C.ar         1    LIG   0.0000
  33 H            0.3464    -3.4199     7.3917 H            1    LIG   0.0000
  34 H           -0.2317    -2.4800     6.1880 H            1    LIG   0.0000
  35 H            0.7704    -3.7226     5.8441 H            1    LIG   0.0000
  36 H            3.6445    -0.4891     6.4140 H            1    LIG   0.0000
  37 H            4.3347     0.6215     4.4048 H            1    LIG   0.0000
  38 H            7.0214     0.9140     1.1468 H            1    LIG   0.0000
  39 H            8.9778     1.5914    -0.0598 H            1    LIG   0.0000
  40 H            8.7573     2.7555    -2.1343 H            1    LIG   0.0000
  41 H            6.5920     3.2484    -3.0135 H            1    LIG   0.0000
  42 H            4.6303     2.5763    -1.8119 H            1    LIG   0.0000
  43 H            2.9700     1.9990    -0.7955 H            1    LIG   0.0000
  44 H            0.5000     0.1341     1.0126 H            1    LIG   0.0000
  45 H            0.5372     2.3378     3.3500 H            1    LIG   0.0000
  46 H            1.9234     2.8682     4.0311 H            1    LIG   0.0000
  47 H            0.6017     3.8271     4.0167 H            1    LIG   0.0000
  48 H            4.2205     7.3404    -1.5060 H            1    LIG   0.0000
  49 H            2.8240     5.4094    -2.2738 H            1    LIG   0.0000
  50 H            1.2881    -1.2520     2.3128 H            1    LIG   0.0000
  51 H            0.5938    -2.3699     4.3170 H            1    LIG   0.0000
@<TRIPOS>BOND
   1        1        2 1
   2        2        3 1
   3        3        4 ar
   4        4        5 ar
   5        5        6 ar
   6        6        7 1
   7        7        8 2
   8        8        9 1
   9        9       10 1
  10       10       11 ar
  11       11       12 ar
  12       12       13 ar
  13       13       14 ar
  14       14       15 ar
  15       15       10 ar
  16        9       16 1
  17       16       17 2
  18       17        7 1
  19       17       18 1
  20       18       19 2
  21       19       20 1
  22       20       21 1
  23       21       22 1
  24       21       23 2
  25       23       24 1
  26       24       25 1
  27       25       26 1
  28       26       27 2
  29       27       28 1
  30       28       24 2
  31       28       29 1
  32       29       20 1
  33       29       30 2
  34        6       31 ar
  35       31       32 ar
  36       32        3 ar
  37        1       33 1
  38        1       34 1
  39        1       35 1
  40        4       36 1
  41        5       37 1
  42       11       38 1
  43       12       39 1
  44       13       40 1
  45       14       41 1
  46       15       42 1
  47       16       43 1
  48       18       44 1
  49       22       45 1
  50       22       46 1
  51       22       47 1
  52       26       48 1
  53       27       49 1
  54       31       50 1
  55       32       51 1

@<TRIPOS>MOLECULE

  51   55
SMALL
USER_CHARGES
@<TRIPOS>ATOM
   1 C1           2.4401    -1.8455     7.8042 C.3          1    LIG   0.0000
   2 O2           1.6761    -2.1407     6.6442 O.3          1    LIG   0.0000
   3 C3           2.0675    -1.5125     5.5150 C.ar         1    LIG   0.0000
   4 C4           3.1552    -0.6467     5.5563 C.ar         1    LIG   0.0000
   5 C5           3.5538    -0.0030     4.3897 C.ar         1    LIG   0.0000
   6 C6           2.8655    -0.2281     3.2013 C.ar         1    LIG   0.0000
   7 C7           3.2891     0.4476     1.9896 C.2          1    LIG   0.0000
   8 N8           4.5244     0.6583     1.6060 N.2          1    LIG   0.0000
   9 N9           4.5302     1.3018     0.4584 N.pl3        1    LIG   0.0000
  10 C10          5.6778     1.6938    -0.2417 C.ar         1    LIG   0.0000
  11 C11          6.9345     1.4017     0.2781 C.ar         1    LIG   0.0000
  12 C12          8.0690     1.7956    -0.4237 C.ar         1    LIG   0.0000
  13 C13          7.9399     2.4736    -1.6320 C.ar         1    LIG   0.0000
  14 C14          6.6791     2.7613    -2.1445 C.ar         1    LIG   0.0000
  15 C15          5.5391     2.3715    -1.4486 C.ar         1    LIG   0.0000
  16 C16          3.2559     1.5332     0.0419 C.2          1    LIG   0.0000
  17 C17          2.4509     1.0000     1.0000 C.2          1    LIG   0.0000
  18 C18          1.0000     1.0000     1.0000 C.2          1    LIG   0.0000
  19 N19          0.3750     2.0824     0.9843 N.2          1    LIG   0.0000
  20 N20          1.1690     3.1752     0.9684 N.pl3        1    LIG   0.0000
  21 C21          1.5502     3.6831    -0.2482 C.2          1    LIG   0.0000
  22 C22          1.1151     3.0653    -1.5672 C.3          1    LIG   0.0000
  23 N23          2.3246     4.7469    -0.3036 N.2          1    LIG   0.0000
  24 C24          2.7117     5.2972     0.8861 C.2          1    LIG   0.0000
  25 S25          3.7047     6.6675     1.0493 S.3          1    LIG   0.0000
  26 C26          3.7415     6.7412     2.7529 C.2          1    LIG   0.0000
  27 C27          2.9773     5.6935     3.1749 C.2          1    LIG   0.0000
  28 C28          2.4068     4.8916     2.1436 C.2          1    LIG   0.0000
  29 C29          1.5724     3.7476     2.1491 C.2          1    LIG   0.0000
  30 O30          1.1999     3.2490     3.2005 O.2          1    LIG   0.0000
  31 C31          1.7785    -1.0952     3.1701 C.ar         1    LIG   0.0000
  32 C32          1.3738    -1.7443     4.3321 C.ar         1    LIG   0.0000
  33 H            2.0747    -2.3557     8.5828 H            1    LIG   0.0000
  34 H            3.3929    -2.1078     7.6514 H            1    LIG   0.0000
  35 H            2.3908    -0.8652     7.9953 H            1    LIG   0.0000
  36 H            3.6445    -0.4891     6.4140 H            1    LIG   0.0000
  37 H            4.3347     0.6215     4.4048 H            1    LIG   0.0000
  38 H            7.0214     0.9140     1.1468 H            1    LIG   0.0000
  39 H            8.9778     1.5914    -0.0598 H            1    LIG   0.0000
  40 H            8.7573     2.7555    -2.1343 H            1    LIG   0.0000
  41 H            6.5920     3.2484    -3.0135 H            1    LIG   0.0000
  42 H            4.6303     2.5763    -1.8119 H            1    LIG   0.0000
  43 H            2.9700     1.9990    -0.7955 H            1    LIG   0.0000
  44 H            0.5000     0.1341     1.0126 H            1    LIG   0.0000
  45 H            0.5351     2.2706    -1.3878 H            1    LIG   0.0000
  46 H            0.6018     3.7396    -2.0979 H            1    LIG   0.0000
  47 H            1.9223     2.7791    -2.0835 H            1    LIG   0.0000
  48 H            4.2211     7.4100     3.3210 H            1    LIG   0.0000
  49 H            2.8270     5.5004     4.1445 H            1    LIG   0.0000
  50 H            1.2881    -1.2520     2.3128 H            1    LIG   0.0000
  51 H            0.5938    -2.3699     4.3170 H            1    LIG   0.0000
@<TRIPOS>BOND
   1        1        2 1
   2        2        3 1
   3        3        4 ar
   4        4        5 ar
   5        5        6 ar
   6        6        7 1
   7        7        8 2
   8        8        9 1
   9        9       10 1
  10       10       11 ar
  11       11       12 ar
  12       12       13 ar
  13       13       14 ar
  14       14       15 ar
  15       15       10 ar
  16        9       16 1
  17       16       17 2
  18       17        7 1
  19       17       18 1
  20       18       19 2
  21       19       20 1
  22       20       21 1
  23       21       22 1
  24       21       23 2
  25       23       24 1
  26       24       25 1
  27       25       26 1
  28       26       27 2
  29       27       28 1
  30       28       24 2
  31       28       29 1
  32       29       20 1
  33       29       30 2
  34        6       31 ar
  35       31       32 ar
  36       32        3 ar
  37        1       33 1
  38        1       34 1
  39        1       35 1
  40        4       36 1
  41        5       37 1
  42       11       38 1
  43       12       39 1
  44       13       40 1
  45       14       41 1
  46       15       42 1
  47       16       43 1
  48       18       44 1
  49       22       45 1
  50       22       46 1
  51       22       47 1
  52       26       48 1
  53       27       49 1
  54       31       50 1
  55       32       51 1

@<TRIPOS>MOLECULE

  51   55
SMALL
USER_CHARGES
@<TRIPOS>ATOM
   1 C1           0.5561    -3.1641    -4.3864 C.3          1    LIG   0.0000
   2 O2           1.6724    -2.3017    -4.5503 O.3          1    LIG   0.0000
   3 C3           2.0648    -1.6416    -3.4398 C.ar         1    LIG   0.0000
   4 C4           3.1505    -0.7749    -3.5075 C.ar         1    LIG   0.0000
   5 C5           3.5497    -0.0975    -2.3603 C.ar         1    LIG   0.0000
   6 C6           2.8655    -0.2923    -1.1642 C.ar         1    LIG   0.0000
   7 C7           3.2891     0.4191     0.0268 C.2          1    LIG   0.0000
   8 N8           4.5244     0.6461     0.4011 N.2          1    LIG   0.0000
   9 N9           4.5302     1.3182     1.5322 N.pl3        1    LIG   0.0000
  10 C10          5.6778     1.7284     2.2217 C.ar         1    LIG   0.0000
  11 C11          6.9345     1.4243     1.7089 C.ar         1    LIG   0.0000
  12 C12          8.0690     1.8351     2.4008 C.ar         1    LIG   0.0000
  13 C13          7.9399     2.5425     3.5922 C.ar         1    LIG   0.0000
  14 C14          6.6791     2.8426     4.0976 C.ar         1    LIG   0.0000
  15 C15          5.5391     2.4348     3.4121 C.ar         1    LIG   0.0000
  16 C16          3.2559     1.5631     1.9408 C.2          1    LIG   0.0000
  17 C17          2.4509     1.0000     1.0000 C.2          1    LIG   0.0000
  18 C18          1.0000     1.0000     1.0000 C.2          1    LIG   0.0000
  19 N19          0.3750     2.0824     0.9843 N.2          1    LIG   0.0000
  20 N20          1.1690     3.1752     0.9684 N.pl3        1    LIG   0.0000
  21 C21          1.0619     4.0706     2.0030 C.2          1    LIG   0.0000
  22 C22          0.0898     3.8788     3.1559 C.3          1    LIG   0.0000
  23 N23          1.8189     5.1481     2.0215 N.2          1    LIG   0.0000
  24 C24          2.6905     5.3140     0.9819 C.2          1    LIG   0.0000
  25 S25          3.7585     6.6248     0.8047 S.3          1    LIG   0.0000
  26 C26          4.4834     6.1526    -0.6652 C.2          1    LIG   0.0000
  27 C27          3.8820     4.9755    -1.0010 C.2          1    LIG   0.0000
  28 C28          2.8882     4.5093    -0.0915 C.2          1    LIG   0.0000
  29 C29          2.0533     3.3661    -0.0640 C.2          1    LIG   0.0000
  30 O30          2.1022     2.5331    -0.9565 O.2          1    LIG   0.0000
  31 C31          1.7814    -1.1615    -1.1062 C.ar         1    LIG   0.0000
  32 C32          1.3745    -1.8422    -2.2493 C.ar         1    LIG   0.0000
  33 H            0.3440    -3.6041    -5.2590 H            1    LIG   0.0000
  34 H            0.7720    -3.8629    -3.7045 H            1    LIG   0.0000
  35 H           -0.2337    -2.6325    -4.0805 H            1    LIG   0.0000
  36 H            3.6379    -0.6405    -4.3703 H            1    LIG   0.0000
  37 H            4.3281     0.5293    -2.3949 H            1    LIG   0.0000
  38 H            7.0214     0.9159     0.8521 H            1    LIG   0.0000
  39 H            8.9778     1.6221     2.0420 H            1    LIG   0.0000
  40 H            8.7573     2.8366     4.0874 H            1    LIG   0.0000
  41 H            6.5920     3.3516     4.9539 H            1    LIG   0.0000
  42 H            4.6303     2.6470     3.7710 H            1    LIG   0.0000
  43 H            2.9700     2.0555     2.7629 H            1    LIG   0.0000
  44 H            0.5000     0.1341     1.0126 H            1    LIG   0.0000
  45 H           -0.4212     3.0296     3.0231 H            1    LIG   0.0000
  46 H            0.5979     3.8311     4.0158 H            1    LIG   0.0000
  47 H           -0.5466     4.6495     3.1870 H            1    LIG   0.0000
  48 H            5.1969     6.6358    -1.1725 H            1    LIG   0.0000
  49 H            4.1225     4.4723    -1.8311 H            1    LIG   0.0000
  50 H            1.2946    -1.2972    -0.2433 H            1    LIG   0.0000
  51 H            0.5953    -2.4681    -2.2153 H            1    LIG   0.0000
@<TRIPOS>BOND
   1        1        2 1
   2        2        3 1
   3        3        4 ar
   4        4        5 ar
   5        5        6 ar
   6        6        7 1
   7        7        8 2
   8        8        9 1
   9        9       10 1
  10       10       11 ar
  11       11       12 ar
  12       12       13 ar
  13       13       14 ar
  14       14       15 ar
  15       15       10 ar
  16        9       16 1
  17       16       17 2
  18       17        7 1
  19       17       18 1
  20       18       19 2
  21       19       20 1
  22       20       21 1
  23       21       22 1
  24       21       23 2
  25       23       24 1
  26       24       25 1
  27       25       26 1
  28       26       27 2
  29       27       28 1
  30       28       24 2
  31       28       29 1
  32       29       20 1
  33       29       30 2
  34        6       31 ar
  35       31       32 ar
  36       32        3 ar
  37        1       33 1
  38        1       34 1
  39        1       35 1
  40        4       36 1
  41        5       37 1
  42       11       38 1
  43       12       39 1
  44       13       40 1
  45       14       41 1
  46       15       42 1
  47       16       43 1
  48       18       44 1
  49       22       45 1
  50       22       46 1
  51       22       47 1
  52       26       48 1
  53       27       49 1
  54       31       50 1
  55       32       51 1

@<TRIPOS>MOLECULE

  51   55
SMALL
USER_CHARGES
@<TRIPOS>ATOM
   1 C1           0.5561    -3.1641    -4.3864 C.3          1    LIG   0.0000
   2 O2           1.6724    -2.3017    -4.5503 O.3          1    LIG   0.0000
   3 C3           2.0648    -1.6416    -3.4398 C.ar         1    LIG   0.0000
   4 C4           3.1505    -0.7749    -3.5075 C.ar         1    LIG   0.0000
   5 C5           3.5497    -0.0975    -2.3603 C.ar         1    LIG   0.0000
   6 C6           2.8655    -0.2923    -1.1642 C.ar         1    LIG   0.0000
   7 C7           3.2891     0.4191     0.0268 C.2          1    LIG   0.0000
   8 N8           4.5244     0.6461     0.4011 N.2          1    LIG   0.0000
   9 N9           4.5302     1.3182     1.5322 N.pl3        1    LIG   0.0000
  10 C10          5.6778     1.7284     2.2217 C.ar         1    LIG   0.0000
  11 C11          6.9345     1.4243     1.7089 C.ar         1    LIG   0.0000
  12 C12          8.0690     1.8351     2.4008 C.ar         1    LIG   0.0000
  13 C13          7.9399     2.5425     3.5922 C.ar         1    LIG   0.0000
  14 C14          6.6791     2.8426     4.0976 C.ar         1    LIG   0.0000
  15 C15          5.5391     2.4348     3.4121 C.ar         1    LIG   0.0000
  16 C16          3.2559     1.5631     1.9408 C.2          1    LIG   0.0000
  17 C17          2.4509     1.0000     1.0000 C.2          1    LIG   0.0000
  18 C18          1.0000     1.0000     1.0000 C.2          1    LIG   0.0000
  19 N19          0.3750     2.0824     0.9843 N.2          1    LIG   0.0000
  20 N20          1.1690     3.1752     0.9684 N.pl3        1    LIG   0.0000
  21 C21          1.5502     3.6831    -0.2482 C.2          1    LIG   0.0000
  22 C22          1.1151     3.0653    -1.5672 C.3          1    LIG   0.0000
  23 N23          2.3246     4.7469    -0.3036 N.2          1    LIG   0.0000
  24 C24          2.7117     5.2972     0.8861 C.2          1    LIG   0.0000
  25 S25          3.7047     6.6675     1.0493 S.3          1    LIG   0.0000
  26 C26          3.7415     6.7412     2.7529 C.2          1    LIG   0.0000
  27 C27          2.9773     5.6935     3.1749 C.2          1    LIG   0.0000
  28 C28          2.4068     4.8916     2.1436 C.2          1    LIG   0.0000
  29 C29          1.5724     3.7476     2.1491 C.2          1    LIG   0.0000
  30 O30          1.1999     3.2490     3.2005 O.2          1    LIG   0.0000
  31 C31          1.7814    -1.1615    -1.1062 C.ar         1    LIG   0.0000
  32 C32          1.3745    -1.8422    -2.2493 C.ar         1    LIG   0.0000
  33 H            0.3440    -3.6041    -5.2590 H            1    LIG   0.0000
  34 H            0.7720    -3.8629    -3.7045 H            1    LIG   0.0000
  35 H           -0.2337    -2.6325    -4.0805 H            1    LIG   0.0000
  36 H            3.6379    -0.6405    -4.3703 H            1    LIG   0.0000
  37 H            4.3281     0.5293    -2.3949 H            1    LIG   0.0000
  38 H            7.0214     0.9159     0.8521 H            1    LIG   0.0000
  39 H            8.9778     1.6221     2.0420 H            1    LIG   0.0000
  40 H            8.7573     2.8366     4.0874 H            1    LIG   0.0000
  41 H            6.5920     3.3516     4.9539 H            1    LIG   0.0000
  42 H            4.6303     2.6470     3.7710 H            1    LIG   0.0000
  43 H            2.9700     2.0555     2.7629 H            1    LIG   0.0000
  44 H            0.5000     0.1341     1.0126 H            1    LIG   0.0000
  45 H            0.5351     2.2706    -1.3878 H            1    LIG   0.0000
  46 H            0.6018     3.7396    -2.0979 H            1    LIG   0.0000
  47 H            1.9223     2.7791    -2.0835 H            1    LIG   0.0000
  48 H            4.2211     7.4100     3.3210 H            1    LIG   0.0000
  49 H            2.8270     5.5004     4.1445 H            1    LIG   0.0000
  50 H            1.2946    -1.2972    -0.2433 H            1    LIG   0.0000
  51 H            0.5953    -2.4681    -2.2153 H            1    LIG   0.0000
@<TRIPOS>BOND
   1        1        2 1
   2        2        3 1
   3        3        4 ar
   4        4        5 ar
   5        5        6 ar
   6        6        7 1
   7        7        8 2
   8        8        9 1
   9        9       10 1
  10       10       11 ar
  11       11       12 ar
  12       12       13 ar
  13       13       14 ar
  14       14       15 ar
  15       15       10 ar
  16        9       16 1
  17       16       17 2
  18       17        7 1
  19       17       18 1
  20       18       19 2
  21       19       20 1
  22       20       21 1
  23       21       22 1
  24       21       23 2
  25       23       24 1
  26       24       25 1
  27       25       26 1
  28       26       27 2
  29       27       28 1
  30       28       24 2
  31       28       29 1
  32       29       20 1
  33       29       30 2
  34        6       31 ar
  35       31       32 ar
  36       32        3 ar
  37        1       33 1
  38        1       34 1
  39        1       35 1
  40        4       36 1
  41        5       37 1
  42       11       38 1
  43       12       39 1
  44       13       40 1
  45       14       41 1
  46       15       42 1
  47       16       43 1
  48       18       44 1
  49       22       45 1
  50       22       46 1
  51       22       47 1
  52       26       48 1
  53       27       49 1
  54       31       50 1
  55       32       51 1

@<TRIPOS>MOLECULE

  51   55
SMALL
USER_CHARGES
@<TRIPOS>ATOM
   1 C1           2.4332    -2.0372    -5.7197 C.3          1    LIG   0.0000
   2 O2           1.6724    -2.3017    -4.5503 O.3          1    LIG   0.0000
   3 C3           2.0648    -1.6416    -3.4398 C.ar         1    LIG   0.0000
   4 C4           3.1505    -0.7749    -3.5075 C.ar         1    LIG   0.0000
   5 C5           3.5497    -0.0975    -2.3603 C.ar         1    LIG   0.0000
   6 C6           2.8655    -0.2923    -1.1642 C.ar         1    LIG   0.0000
   7 C7           3.2891     0.4191     0.0268 C.2          1    LIG   0.0000
   8 N8           4.5244     0.6461     0.4011 N.2          1    LIG   0.0000
   9 N9           4.5302     1.3182     1.5322 N.pl3        1    LIG   0.0000
  10 C10          5.6778     1.7284     2.2217 C.ar         1    LIG   0.0000
  11 C11          6.9345     1.4243     1.7089 C.ar         1    LIG   0.0000
  12 C12          8.0690     1.8351     2.4008 C.ar         1    LIG   0.0000
  13 C13          7.9399     2.5425     3.5922 C.ar         1    LIG   0.0000
  14 C14          6.6791     2.8426     4.0976 C.ar         1    LIG   0.0000
  15 C15          5.5391     2.4348     3.4121 C.ar         1    LIG   0.0000
  16 C16          3.2559     1.5631     1.9408 C.2          1    LIG   0.0000
  17 C17          2.4509     1.0000     1.0000 C.2          1    LIG   0.0000
  18 C18          1.0000     1.0000     1.0000 C.2          1    LIG   0.0000
  19 N19          0.3750     2.0824     0.9843 N.2          1    LIG   0.0000
  20 N20          1.1690     3.1752     0.9684 N.pl3        1    LIG   0.0000
  21 C21          1.5511     3.7176     2.1698 C.2          1    LIG   0.0000
  22 C22          1.1161     3.1381     3.5062 C.3          1    LIG   0.0000
  23 N23          2.3241     4.7835     2.1944 N.2          1    LIG   0.0000
  24 C24          2.7113     5.2989     0.9892 C.2          1    LIG   0.0000
  25 S25          3.7054     6.6632     0.7864 S.3          1    LIG   0.0000
  26 C26          3.7406     6.6886    -0.9187 C.2          1    LIG   0.0000
  27 C27          2.9746     5.6304    -1.3102 C.2          1    LIG   0.0000
  28 C28          2.4026     4.8598    -0.2561 C.2          1    LIG   0.0000
  29 C29          1.5724     3.7131    -0.2283 C.2          1    LIG   0.0000
  30 O30          1.1989     3.1850    -1.2648 O.2          1    LIG   0.0000
  31 C31          1.7814    -1.1615    -1.1062 C.ar         1    LIG   0.0000
  32 C32          1.3745    -1.8422    -2.2493 C.ar         1    LIG   0.0000
  33 H            2.0672    -2.5696    -6.4830 H            1    LIG   0.0000
  34 H            2.3812    -1.0627    -5.9378 H            1    LIG   0.0000
  35 H            3.3869    -2.2931    -5.5618 H            1    LIG   0.0000
  36 H            3.6379    -0.6405    -4.3703 H            1    LIG   0.0000
  37 H            4.3281     0.5293    -2.3949 H            1    LIG   0.0000
  38 H            7.0214     0.9159     0.8521 H            1    LIG   0.0000
  39 H            8.9778     1.6221     2.0420 H            1    LIG   0.0000
  40 H            8.7573     2.8366     4.0874 H            1    LIG   0.0000
  41 H            6.5920     3.3516     4.9539 H            1    LIG   0.0000
  42 H            4.6303     2.6470     3.7710 H            1    LIG   0.0000
  43 H            2.9700     2.0555     2.7629 H            1    LIG   0.0000
  44 H            0.5000     0.1341     1.0126 H            1    LIG   0.0000
  45 H            0.5372     2.3378     3.3500 H            1    LIG   0.0000
  46 H            1.9234     2.8682     4.0311 H            1    LIG   0.0000
  47 H            0.6017     3.8271     4.0167 H            1    LIG   0.0000
  48 H            4.2205     7.3404    -1.5060 H            1    LIG   0.0000
  49 H            2.8240     5.4094    -2.2738 H            1    LIG   0.0000
  50 H            1.2946    -1.2972    -0.2433 H            1    LIG   0.0000
  51 H            0.5953    -2.4681    -2.2153 H            1    LIG   0.0000
@<TRIPOS>BOND
   1        1        2 1
   2        2        3 1
   3        3        4 ar
   4        4        5 ar
   5        5        6 ar
   6        6        7 1
   7        7        8 2
   8        8        9 1
   9        9       10 1
  10       10       11 ar
  11       11       12 ar
  12       12       13 ar
  13       13       14 ar
  14       14       15 ar
  15       15       10 ar
  16        9       16 1
  17       16       17 2
  18       17        7 1
  19       17       18 1
  20       18       19 2
  21       19       20 1
  22       20       21 1
  23       21       22 1
  24       21       23 2
  25       23       24 1
  26       24       25 1
  27       25       26 1
  28       26       27 2
  29       27       28 1
  30       28       24 2
  31       28       29 1
  32       29       20 1
  33       29       30 2
  34        6       31 ar
  35       31       32 ar
  36       32        3 ar
  37        1       33 1
  38        1       34 1
  39        1       35 1
  40        4       36 1
  41        5       37 1
  42       11       38 1
  43       12       39 1
  44       13       40 1
  45       14       41 1
  46       15       42 1
  47       16       43 1
  48       18       44 1
  49       22       45 1
  50       22       46 1
  51       22       47 1
  52       26       48 1
  53       27       49 1
  54       31       50 1
  55       32       51 1

@<TRIPOS>MOLECULE

  51   55
SMALL
USER_CHARGES
@<TRIPOS>ATOM
   1 C1           0.5576    -1.7667    -5.2216 C.3          1    LIG   0.0000
   2 O2           1.6761    -2.3177    -4.5420 O.3          1    LIG   0.0000
   3 C3           2.0675    -1.6539    -3.4334 C.ar         1    LIG   0.0000
   4 C4           3.1552    -2.1225    -2.7042 C.ar         1    LIG   0.0000
   5 C5           3.5538    -1.4341    -1.5634 C.ar         1    LIG   0.0000
   6 C6           2.8655    -0.2923    -1.1642 C.ar         1    LIG   0.0000
   7 C7           3.2891     0.4191     0.0268 C.2          1    LIG   0.0000
   8 N8           4.5244     0.6461     0.4011 N.2          1    LIG   0.0000
   9 N9           4.5302     1.3182     1.5322 N.pl3        1    LIG   0.0000
  10 C10          5.6778     1.7284     2.2217 C.ar         1    LIG   0.0000
  11 C11          6.9345     1.4243     1.7089 C.ar         1    LIG   0.0000
  12 C12          8.0690     1.8351     2.4008 C.ar         1    LIG   0.0000
  13 C13          7.9399     2.5425     3.5922 C.ar         1    LIG   0.0000
  14 C14          6.6791     2.8426     4.0976 C.ar         1    LIG   0.0000
  15 C15          5.5391     2.4348     3.4121 C.ar         1    LIG   0.0000
  16 C16          3.2559     1.5631     1.9408 C.2          1    LIG   0.0000
  17 C17          2.4509     1.0000     1.0000 C.2          1    LIG   0.0000
  18 C18          1.0000     1.0000     1.0000 C.2          1    LIG   0.0000
  19 N19          0.3750     2.0824     0.9843 N.2          1    LIG   0.0000
  20 N20          1.1690     3.1752     0.9684 N.pl3        1    LIG   0.0000
  21 C21          1.5511     3.7176     2.1698 C.2          1    LIG   0.0000
  22 C22          1.1161     3.1381     3.5062 C.3          1    LIG   0.0000
  23 N23          2.3241     4.7835     2.1944 N.2          1    LIG   0.0000
  24 C24          2.7113     5.2989     0.9892 C.2          1    LIG   0.0000
  25 S25          3.7054     6.6632     0.7864 S.3          1    LIG   0.0000
  26 C26          3.7406     6.6886    -0.9187 C.2          1    LIG   0.0000
  27 C27          2.9746     5.6304    -1.3102 C.2          1    LIG   0.0000
  28 C28          2.4026     4.8598    -0.2561 C.2          1    LIG   0.0000
  29 C29          1.5724     3.7131    -0.2283 C.2          1    LIG   0.0000
  30 O30          1.1989     3.1850    -1.2648 O.2          1    LIG   0.0000
  31 C31          1.7785     0.1682    -1.8995 C.ar         1    LIG   0.0000
  32 C32          1.3738    -0.5135    -3.0427 C.ar         1    LIG   0.0000
  33 H            0.3464    -2.3255    -6.0236 H            1    LIG   0.0000
  34 H           -0.2317    -1.7529    -4.6078 H            1    LIG   0.0000
  35 H            0.7704    -0.8338    -5.5120 H            1    LIG   0.0000
  36 H            3.6445    -2.9441    -2.9966 H            1    LIG   0.0000
  37 H            4.3347    -1.7594    -1.0302 H            1    LIG   0.0000
  38 H            7.0214     0.9159     0.8521 H            1    LIG   0.0000
  39 H            8.9778     1.6221     2.0420 H            1    LIG   0.0000
  40 H            8.7573     2.8366     4.0874 H            1    LIG   0.0000
  41 H            6.5920     3.3516     4.9539 H            1    LIG   0.0000
  42 H            4.6303     2.6470     3.7710 H            1    LIG   0.0000
  43 H            2.9700     2.0555     2.7629 H            1    LIG   0.0000
  44 H            0.5000     0.1341     1.0126 H            1    LIG   0.0000
  45 H            0.5372     2.3378     3.3500 H            1    LIG   0.0000
  46 H            1.9234     2.8682     4.0311 H            1    LIG   0.0000
  47 H            0.6017     3.8271     4.0167 H            1    LIG   0.0000
  48 H            4.2205     7.3404    -1.5060 H            1    LIG   0.0000
  49 H            2.8240     5.4094    -2.2738 H            1    LIG   0.0000
  50 H            1.2881     0.9891    -1.6067 H            1    LIG   0.0000
  51 H            0.5938    -0.1877    -3.5769 H            1    LIG   0.0000
@<TRIPOS>BOND
   1        1        2 1
   2        2        3 1
   3        3        4 ar
   4        4        5 ar
   5        5        6 ar
   6        6        7 1
   7        7        8 2
   8        8        9 1
   9        9       10 1
  10       10       11 ar
  11       11       12 ar
  12       12       13 ar
  13       13       14 ar
  14       14       15 ar
  15       15       10 ar
  16        9       16 1
  17       16       17 2
  18       17        7 1
  19       17       18 1
  20       18       19 2
  21       19       20 1
  22       20       21 1
  23       21       22 1
  24       21       23 2
  25       23       24 1
  26       24       25 1
  27       25       26 1
  28       26       27 2
  29       27       28 1
  30       28       24 2
  31       28       29 1
  32       29       20 1
  33       29       30 2
  34        6       31 ar
  35       31       32 ar
  36       32        3 ar
  37        1       33 1
  38        1       34 1
  39        1       35 1
  40        4       36 1
  41        5       37 1
  42       11       38 1
  43       12       39 1
  44       13       40 1
  45       14       41 1
  46       15       42 1
  47       16       43 1
  48       18       44 1
  49       22       45 1
  50       22       46 1
  51       22       47 1
  52       26       48 1
  53       27       49 1
  54       31       50 1
  55       32       51 1

