@<TRIPOS>MOLECULE
*****
 51 55 0 0 0
SMALL
USER_CHARGES

@<TRIPOS>ATOM
      1 C1          0.5576   -3.0047    6.5069 C.3     1  LIG1        0.0000
      2 O2          1.6761   -2.1407    6.6442 O.2     1  LIG1        0.0000
      3 C3          2.0675   -1.5125    5.5150 C.3     1  LIG1        0.0000
      4 C4          3.1552   -0.6467    5.5563 C.3     1  LIG1        0.0000
      5 C5          3.5538   -0.0030    4.3897 C.3     1  LIG1        0.0000
      6 C6          2.8655   -0.2281    3.2013 C.3     1  LIG1        0.0000
      7 C7          3.2891    0.4476    1.9896 C.2     1  LIG1        0.0000
      8 N8          4.5244    0.6583    1.6060 N.2     1  LIG1        0.0000
      9 N9          4.5302    1.3018    0.4584 N.pl3   1  LIG1        0.0000
     10 C10         5.6778    1.6938   -0.2417 C.3     1  LIG1        0.0000
     11 C11         6.9345    1.4017    0.2781 C.3     1  LIG1        0.0000
     12 C12         8.0690    1.7956   -0.4237 C.3     1  LIG1        0.0000
     13 C13         7.9399    2.4736   -1.6320 C.3     1  LIG1        0.0000
     14 C14         6.6791    2.7613   -2.1445 C.3     1  LIG1        0.0000
     15 C15         5.5391    2.3715   -1.4486 C.3     1  LIG1        0.0000
     16 C16         3.2559    1.5332    0.0419 C.2     1  LIG1        0.0000
     17 C17         2.4509    1.0000    1.0000 C.2     1  LIG1        0.0000
     18 C18         1.0000    1.0000    1.0000 C.2     1  LIG1        0.0000
     19 N19         0.3750    2.0824    0.9843 N.2     1  LIG1        0.0000
     20 N20         1.1690    3.1752    0.9684 N.am    1  LIG1        0.0000
     21 C21         1.0612    4.0408   -0.0911 C.2     1  LIG1        0.0000
     22 C22         0.0890    3.8157   -1.2379 C.3     1  LIG1        0.0000
     23 N23         1.8193    5.1164   -0.1418 N.2     1  LIG1        0.0000
     24 C24         2.6909    5.3124    0.8927 C.2     1  LIG1        0.0000
     25 S25         3.7579    6.6286    1.0324 S.3     1  LIG1        0.0000
     26 C26         4.4841    6.1982    2.5145 C.2     1  LIG1        0.0000
     27 C27         3.8843    5.0302    2.8832 C.2     1  LIG1        0.0000
     28 C28         2.8919    4.5368    1.9867 C.2     1  LIG1        0.0000
     29 C29         2.0533    3.3960    1.9949 C.2     1  LIG1        0.0000
     30 O30         2.1031    2.5885    2.9106 O.2     1  LIG1        0.0000
     31 C31         1.7785   -1.0952    3.1701 C.3     1  LIG1        0.0000
     32 C32         1.3738   -1.7443    4.3321 C.3     1  LIG1        0.0000
     33 H           0.3464   -3.4199    7.3917 H       1  LIG1        0.0000
     34 H          -0.2317   -2.4800    6.1880 H       1  LIG1        0.0000
     35 H           0.7704   -3.7226    5.8441 H       1  LIG1        0.0000
     36 H           3.6445   -0.4891    6.4140 H       1  LIG1        0.0000
     37 H           4.3347    0.6215    4.4048 H       1  LIG1        0.0000
     38 H           7.0214    0.9140    1.1468 H       1  LIG1        0.0000
     39 H           8.9778    1.5914   -0.0598 H       1  LIG1        0.0000
     40 H           8.7573    2.7555   -2.1343 H       1  LIG1        0.0000
     41 H           6.5920    3.2484   -3.0135 H       1  LIG1        0.0000
     42 H           4.6303    2.5763   -1.8119 H       1  LIG1        0.0000
     43 H           2.9700    1.9990   -0.7955 H       1  LIG1        0.0000
     44 H           0.5000    0.1341    1.0126 H       1  LIG1        0.0000
     45 H          -0.4231    2.9713   -1.0799 H       1  LIG1        0.0000
     46 H          -0.5466    4.5858   -1.2920 H       1  LIG1        0.0000
     47 H           0.5971    3.7418   -2.0960 H       1  LIG1        0.0000
     48 H           5.1975    6.6960    3.0078 H       1  LIG1        0.0000
     49 H           4.1250    4.5511    3.7274 H       1  LIG1        0.0000
     50 H           1.2881   -1.2520    2.3128 H       1  LIG1        0.0000
     51 H           0.5938   -2.3699    4.3170 H       1  LIG1        0.0000
@<TRIPOS>BOND
     1     1     2    1
     2     2     3    1
     3     3     4   ar
     4     4     5   ar
     5     5     6   ar
     6     6     7    1
     7     7     8    2
     8     8     9    1
     9     9    10    1
    10    10    11   ar
    11    11    12   ar
    12    12    13   ar
    13    13    14   ar
    14    14    15   ar
    15    15    10   ar
    16     9    16    1
    17    16    17    2
    18    17     7    1
    19    17    18    1
    20    18    19    2
    21    19    20    1
    22    20    21    1
    23    21    22    1
    24    21    23    2
    25    23    24    1
    26    24    25    1
    27    25    26    1
    28    26    27    2
    29    27    28    1
    30    28    24    2
    31    28    29    1
    32    29    20   am
    33    29    30    2
    34     6    31   ar
    35    31    32   ar
    36    32     3   ar
    37     1    33    1
    38     1    34    1
    39     1    35    1
    40     4    36    1
    41     5    37    1
    42    11    38    1
    43    12    39    1
    44    13    40    1
    45    14    41    1
    46    15    42    1
    47    16    43    1
    48    18    44    1
    49    22    45    1
    50    22    46    1
    51    22    47    1
    52    26    48    1
    53    27    49    1
    54    31    50    1
    55    32    51    1
