@<TRIPOS>MOLECULE
*****
 51 55 0 0 0
SMALL
USER_CHARGES

@<TRIPOS>ATOM
      1 C1          0.5561   -1.5827    7.2994 C.3     1  LIG1        0.0000
      2 O2          1.6724   -2.1558    6.6345 O.2     1  LIG1        0.0000
      3 C3          2.0648   -1.5242    5.5076 C.3     1  LIG1        0.0000
      4 C4          3.1505   -2.0162    4.7909 C.3     1  LIG1        0.0000
      5 C5          3.5497   -1.3614    3.6306 C.3     1  LIG1        0.0000
      6 C6          2.8655   -0.2281    3.2013 C.3     1  LIG1        0.0000
      7 C7          3.2891    0.4476    1.9896 C.2     1  LIG1        0.0000
      8 N8          4.5244    0.6583    1.6060 N.2     1  LIG1        0.0000
      9 N9          4.5302    1.3018    0.4584 N.pl3   1  LIG1        0.0000
     10 C10         5.6778    1.6938   -0.2417 C.3     1  LIG1        0.0000
     11 C11         6.9345    1.4017    0.2781 C.3     1  LIG1        0.0000
     12 C12         8.0690    1.7956   -0.4237 C.3     1  LIG1        0.0000
     13 C13         7.9399    2.4736   -1.6320 C.3     1  LIG1        0.0000
     14 C14         6.6791    2.7613   -2.1445 C.3     1  LIG1        0.0000
     15 C15         5.5391    2.3715   -1.4486 C.3     1  LIG1        0.0000
     16 C16         3.2559    1.5332    0.0419 C.2     1  LIG1        0.0000
     17 C17         2.4509    1.0000    1.0000 C.2     1  LIG1        0.0000
     18 C18         1.0000    1.0000    1.0000 C.2     1  LIG1        0.0000
     19 N19         0.3750    2.0824    0.9843 N.2     1  LIG1        0.0000
     20 N20         1.1690    3.1752    0.9684 N.am    1  LIG1        0.0000
     21 C21         1.5502    3.6831   -0.2482 C.2     1  LIG1        0.0000
     22 C22         1.1151    3.0653   -1.5672 C.3     1  LIG1        0.0000
     23 N23         2.3246    4.7469   -0.3036 N.2     1  LIG1        0.0000
     24 C24         2.7117    5.2972    0.8861 C.2     1  LIG1        0.0000
     25 S25         3.7047    6.6675    1.0493 S.3     1  LIG1        0.0000
     26 C26         3.7415    6.7412    2.7529 C.2     1  LIG1        0.0000
     27 C27         2.9773    5.6935    3.1749 C.2     1  LIG1        0.0000
     28 C28         2.4068    4.8916    2.1436 C.2     1  LIG1        0.0000
     29 C29         1.5724    3.7476    2.1491 C.2     1  LIG1        0.0000
     30 O30         1.1999    3.2490    3.2005 O.2     1  LIG1        0.0000
     31 C31         1.7814    0.2567    3.9251 C.3     1  LIG1        0.0000
     32 C32         1.3745   -0.3928    5.0861 C.3     1  LIG1        0.0000
     33 H           0.3440   -2.1184    8.1168 H       1  LIG1        0.0000
     34 H           0.7720   -0.6427    7.5636 H       1  LIG1        0.0000
     35 H          -0.2337   -1.5836    6.6860 H       1  LIG1        0.0000
     36 H           3.6379   -2.8305    5.1059 H       1  LIG1        0.0000
     37 H           4.3281   -1.7047    3.1051 H       1  LIG1        0.0000
     38 H           7.0214    0.9140    1.1468 H       1  LIG1        0.0000
     39 H           8.9778    1.5914   -0.0598 H       1  LIG1        0.0000
     40 H           8.7573    2.7555   -2.1343 H       1  LIG1        0.0000
     41 H           6.5920    3.2484   -3.0135 H       1  LIG1        0.0000
     42 H           4.6303    2.5763   -1.8119 H       1  LIG1        0.0000
     43 H           2.9700    1.9990   -0.7955 H       1  LIG1        0.0000
     44 H           0.5000    0.1341    1.0126 H       1  LIG1        0.0000
     45 H           0.5351    2.2706   -1.3878 H       1  LIG1        0.0000
     46 H           0.6018    3.7396   -2.0979 H       1  LIG1        0.0000
     47 H           1.9223    2.7791   -2.0835 H       1  LIG1        0.0000
     48 H           4.2211    7.4100    3.3210 H       1  LIG1        0.0000
     49 H           2.8270    5.5004    4.1445 H       1  LIG1        0.0000
     50 H           1.2946    1.0719    3.6111 H       1  LIG1        0.0000
     51 H           0.5953   -0.0505    5.6111 H       1  LIG1        0.0000
@<TRIPOS>BOND
     1     1     2    1
     2     2     3    1
     3     3     4   ar
     4     4     5   ar
     5     5     6   ar
     6     6     7    1
     7     7     8    2
     8     8     9    1
     9     9    10    1
    10    10    11   ar
    11    11    12   ar
    12    12    13   ar
    13    13    14   ar
    14    14    15   ar
    15    15    10   ar
    16     9    16    1
    17    16    17    2
    18    17     7    1
    19    17    18    1
    20    18    19    2
    21    19    20    1
    22    20    21    1
    23    21    22    1
    24    21    23    2
    25    23    24    1
    26    24    25    1
    27    25    26    1
    28    26    27    2
    29    27    28    1
    30    28    24    2
    31    28    29    1
    32    29    20   am
    33    29    30    2
    34     6    31   ar
    35    31    32   ar
    36    32     3   ar
    37     1    33    1
    38     1    34    1
    39     1    35    1
    40     4    36    1
    41     5    37    1
    42    11    38    1
    43    12    39    1
    44    13    40    1
    45    14    41    1
    46    15    42    1
    47    16    43    1
    48    18    44    1
    49    22    45    1
    50    22    46    1
    51    22    47    1
    52    26    48    1
    53    27    49    1
    54    31    50    1
    55    32    51    1
