@<TRIPOS>MOLECULE
*****
 51 55 0 0 0
SMALL
USER_CHARGES

@<TRIPOS>ATOM
      1 C1          0.5576   -1.7667   -5.2216 C.3     1  LIG1        0.0000
      2 O2          1.6761   -2.3177   -4.5420 O.2     1  LIG1        0.0000
      3 C3          2.0675   -1.6539   -3.4334 C.3     1  LIG1        0.0000
      4 C4          3.1552   -2.1225   -2.7042 C.3     1  LIG1        0.0000
      5 C5          3.5538   -1.4341   -1.5634 C.3     1  LIG1        0.0000
      6 C6          2.8655   -0.2923   -1.1642 C.3     1  LIG1        0.0000
      7 C7          3.2891    0.4191    0.0268 C.2     1  LIG1        0.0000
      8 N8          4.5244    0.6461    0.4011 N.2     1  LIG1        0.0000
      9 N9          4.5302    1.3182    1.5322 N.pl3   1  LIG1        0.0000
     10 C10         5.6778    1.7284    2.2217 C.3     1  LIG1        0.0000
     11 C11         6.9345    1.4243    1.7089 C.3     1  LIG1        0.0000
     12 C12         8.0690    1.8351    2.4008 C.3     1  LIG1        0.0000
     13 C13         7.9399    2.5425    3.5922 C.3     1  LIG1        0.0000
     14 C14         6.6791    2.8426    4.0976 C.3     1  LIG1        0.0000
     15 C15         5.5391    2.4348    3.4121 C.3     1  LIG1        0.0000
     16 C16         3.2559    1.5631    1.9408 C.2     1  LIG1        0.0000
     17 C17         2.4509    1.0000    1.0000 C.2     1  LIG1        0.0000
     18 C18         1.0000    1.0000    1.0000 C.2     1  LIG1        0.0000
     19 N19         0.3750    2.0824    0.9843 N.2     1  LIG1        0.0000
     20 N20         1.1690    3.1752    0.9684 N.am    1  LIG1        0.0000
     21 C21         1.5511    3.7176    2.1698 C.2     1  LIG1        0.0000
     22 C22         1.1161    3.1381    3.5062 C.3     1  LIG1        0.0000
     23 N23         2.3241    4.7835    2.1944 N.2     1  LIG1        0.0000
     24 C24         2.7113    5.2989    0.9892 C.2     1  LIG1        0.0000
     25 S25         3.7054    6.6632    0.7864 S.3     1  LIG1        0.0000
     26 C26         3.7406    6.6886   -0.9187 C.2     1  LIG1        0.0000
     27 C27         2.9746    5.6304   -1.3102 C.2     1  LIG1        0.0000
     28 C28         2.4026    4.8598   -0.2561 C.2     1  LIG1        0.0000
     29 C29         1.5724    3.7131   -0.2283 C.2     1  LIG1        0.0000
     30 O30         1.1989    3.1850   -1.2648 O.2     1  LIG1        0.0000
     31 C31         1.7785    0.1682   -1.8995 C.3     1  LIG1        0.0000
     32 C32         1.3738   -0.5135   -3.0427 C.3     1  LIG1        0.0000
     33 H           0.3464   -2.3255   -6.0236 H       1  LIG1        0.0000
     34 H          -0.2317   -1.7529   -4.6078 H       1  LIG1        0.0000
     35 H           0.7704   -0.8338   -5.5120 H       1  LIG1        0.0000
     36 H           3.6445   -2.9441   -2.9966 H       1  LIG1        0.0000
     37 H           4.3347   -1.7594   -1.0302 H       1  LIG1        0.0000
     38 H           7.0214    0.9159    0.8521 H       1  LIG1        0.0000
     39 H           8.9778    1.6221    2.0420 H       1  LIG1        0.0000
     40 H           8.7573    2.8366    4.0874 H       1  LIG1        0.0000
     41 H           6.5920    3.3516    4.9539 H       1  LIG1        0.0000
     42 H           4.6303    2.6470    3.7710 H       1  LIG1        0.0000
     43 H           2.9700    2.0555    2.7629 H       1  LIG1        0.0000
     44 H           0.5000    0.1341    1.0126 H       1  LIG1        0.0000
     45 H           0.5372    2.3378    3.3500 H       1  LIG1        0.0000
     46 H           1.9234    2.8682    4.0311 H       1  LIG1        0.0000
     47 H           0.6017    3.8271    4.0167 H       1  LIG1        0.0000
     48 H           4.2205    7.3404   -1.5060 H       1  LIG1        0.0000
     49 H           2.8240    5.4094   -2.2738 H       1  LIG1        0.0000
     50 H           1.2881    0.9891   -1.6067 H       1  LIG1        0.0000
     51 H           0.5938   -0.1877   -3.5769 H       1  LIG1        0.0000
@<TRIPOS>BOND
     1     1     2    1
     2     2     3    1
     3     3     4   ar
     4     4     5   ar
     5     5     6   ar
     6     6     7    1
     7     7     8    2
     8     8     9    1
     9     9    10    1
    10    10    11   ar
    11    11    12   ar
    12    12    13   ar
    13    13    14   ar
    14    14    15   ar
    15    15    10   ar
    16     9    16    1
    17    16    17    2
    18    17     7    1
    19    17    18    1
    20    18    19    2
    21    19    20    1
    22    20    21    1
    23    21    22    1
    24    21    23    2
    25    23    24    1
    26    24    25    1
    27    25    26    1
    28    26    27    2
    29    27    28    1
    30    28    24    2
    31    28    29    1
    32    29    20   am
    33    29    30    2
    34     6    31   ar
    35    31    32   ar
    36    32     3   ar
    37     1    33    1
    38     1    34    1
    39     1    35    1
    40     4    36    1
    41     5    37    1
    42    11    38    1
    43    12    39    1
    44    13    40    1
    45    14    41    1
    46    15    42    1
    47    16    43    1
    48    18    44    1
    49    22    45    1
    50    22    46    1
    51    22    47    1
    52    26    48    1
    53    27    49    1
    54    31    50    1
    55    32    51    1
