@<TRIPOS>MOLECULE

  61   64
SMALL
USER_CHARGES
@<TRIPOS>ATOM
   1 C1          -1.6049     1.3352    -2.9033 C.3          1    LIG   0.0000
   2 C2          -0.9027     0.3521    -1.9810 C.3          1    LIG   0.0000
   3 C3          -1.4658     0.4851    -0.5754 C.3          1    LIG   0.0000
   4 N4          -0.7863    -0.4661     0.3170 N.2          1    LIG   1.0000
   5 C5           0.2997    -0.2130     1.0000 C.2          1    LIG   0.0000
   6 N6           1.0000     1.0000     1.0000 N.am         1    LIG   0.0000
   7 C7           2.3700     1.0000     1.0000 C.2          1    LIG   0.0000
   8 O8           2.9700    -0.0392     1.0000 O.2          1    LIG   0.0000
   9 C9           3.0942     2.2543     1.0000 C.2          1    LIG   0.0000
  10 N10          4.3891     2.4057     1.0000 N.2          1    LIG   0.0000
  11 N11          4.7240     3.6825     1.0042 N.pl3        1    LIG   0.0000
  12 C12          6.0297     4.1882     1.0051 C.ar         1    LIG   0.0000
  13 C13          7.1101     3.3114     1.0013 C.ar         1    LIG   0.0000
  14 C14          8.4090     3.8084     1.0013 C.ar         1    LIG   0.0000
  15 C15          8.6080     5.1855     1.0059 C.ar         1    LIG   0.0000
  16 C16         10.0251     5.7354     1.0062 C.3          1    LIG   0.0000
  17 C17         10.7581     5.2463     2.2447 C.3          1    LIG   0.0000
  18 C18         10.7553     5.2551    -0.2374 C.3          1    LIG   0.0000
  19 C19          7.5280     6.0618     1.0113 C.ar         1    LIG   0.0000
  20 C20          6.2289     5.5648     1.0106 C.ar         1    LIG   0.0000
  21 C21          3.5916     4.4456     1.0069 C.2          1    LIG   0.0000
  22 C22          2.5503     3.5637     1.0046 C.2          1    LIG   0.0000
  23 O23          1.2335     3.8758     1.0112 O.3          1    LIG  -1.0000
  24 N24          0.6355    -1.3265     1.7073 N.pl3        1    LIG   0.0000
  25 C25          1.7945    -1.4469     2.6033 C.3          1    LIG   0.0000
  26 C26          1.3255    -1.8786     3.9832 C.3          1    LIG   0.0000
  27 C27         -0.2883    -2.2972     1.4496 C.ar         1    LIG   0.0000
  28 C28         -0.4764    -3.6118     1.8695 C.ar         1    LIG   0.0000
  29 C29         -1.5459    -4.3831     1.4259 C.ar         1    LIG   0.0000
  30 C30         -2.4511    -3.8194     0.5340 C.ar         1    LIG   0.0000
  31 C31         -2.2591    -2.5072     0.1146 C.ar         1    LIG   0.0000
  32 C32         -1.1831    -1.7466     0.5663 C.ar         1    LIG   0.0000
  33 H           -1.2344     1.2477    -3.8280 H            1    LIG   0.0000
  34 H           -2.5851     1.1378    -2.9168 H            1    LIG   0.0000
  35 H           -1.4571     2.2671    -2.5718 H            1    LIG   0.0000
  36 H           -1.0505    -0.5798    -2.3124 H            1    LIG   0.0000
  37 H            0.0775     0.5495    -1.9674 H            1    LIG   0.0000
  38 H           -1.3180     1.4170    -0.2439 H            1    LIG   0.0000
  39 H           -2.4460     0.2877    -0.5889 H            1    LIG   0.0000
  40 H            0.5000     1.8660     1.0000 H            1    LIG   0.0000
  41 H            6.9526     2.3239     0.9986 H            1    LIG   0.0000
  42 H            9.1900     3.1839     0.9980 H            1    LIG   0.0000
  43 H            9.9948     6.7349     1.0098 H            1    LIG   0.0000
  44 H           11.6904     5.6081     2.2449 H            1    LIG   0.0000
  45 H           10.2778     5.5623     3.0629 H            1    LIG   0.0000
  46 H           10.7885     4.2468     2.2411 H            1    LIG   0.0000
  47 H           11.6875     5.6168    -0.2372 H            1    LIG   0.0000
  48 H           10.7856     4.2555    -0.2410 H            1    LIG   0.0000
  49 H           10.2730     5.5768    -1.0522 H            1    LIG   0.0000
  50 H            7.6854     7.0493     1.0156 H            1    LIG   0.0000
  51 H            5.4479     6.1893     1.0141 H            1    LIG   0.0000
  52 H            3.5368     5.4441     1.0099 H            1    LIG   0.0000
  53 H            2.2575    -0.5631     2.6699 H            1    LIG   0.0000
  54 H            2.4286    -2.1287     2.2383 H            1    LIG   0.0000
  55 H            2.1140    -1.9605     4.5927 H            1    LIG   0.0000
  56 H            0.6915    -1.1968     4.3481 H            1    LIG   0.0000
  57 H            0.8625    -2.7624     3.9165 H            1    LIG   0.0000
  58 H            0.1779    -4.0139     2.5101 H            1    LIG   0.0000
  59 H           -1.6612    -5.3247     1.7424 H            1    LIG   0.0000
  60 H           -3.2295    -4.3501     0.1986 H            1    LIG   0.0000
  61 H           -2.9094    -2.1000    -0.5268 H            1    LIG   0.0000
@<TRIPOS>BOND
   1        1        2 1
   2        2        3 1
   3        3        4 1
   4        4        5 2
   5        5        6 1
   6        6        7 am
   7        7        8 2
   8        7        9 1
   9        9       10 2
  10       10       11 1
  11       11       12 1
  12       12       13 ar
  13       13       14 ar
  14       14       15 ar
  15       15       16 1
  16       16       17 1
  17       16       18 1
  18       15       19 ar
  19       19       20 ar
  20       20       12 ar
  21       11       21 1
  22       21       22 2
  23       22        9 1
  24       22       23 1
  25        5       24 1
  26       24       25 1
  27       25       26 1
  28       24       27 1
  29       27       28 ar
  30       28       29 ar
  31       29       30 ar
  32       30       31 ar
  33       31       32 ar
  34       32       27 ar
  35       32        4 1
  36        1       33 1
  37        1       34 1
  38        1       35 1
  39        2       36 1
  40        2       37 1
  41        3       38 1
  42        3       39 1
  43        6       40 1
  44       13       41 1
  45       14       42 1
  46       16       43 1
  47       17       44 1
  48       17       45 1
  49       17       46 1
  50       18       47 1
  51       18       48 1
  52       18       49 1
  53       19       50 1
  54       20       51 1
  55       21       52 1
  56       25       53 1
  57       25       54 1
  58       26       55 1
  59       26       56 1
  60       26       57 1
  61       28       58 1
  62       29       59 1
  63       30       60 1
  64       31       61 1

@<TRIPOS>MOLECULE

  61   64
SMALL
USER_CHARGES
@<TRIPOS>ATOM
   1 C1          -3.1995     2.2559     2.7089 C.3          1    LIG   0.0000
   2 C2          -2.4977     1.2729     1.7861 C.3          1    LIG   0.0000
   3 C3          -1.4654     0.4849     2.5759 C.3          1    LIG   0.0000
   4 N4          -0.7863    -0.4661     1.6830 N.2          1    LIG   1.0000
   5 C5           0.2997    -0.2130     1.0000 C.2          1    LIG   0.0000
   6 N6           1.0000     1.0000     1.0000 N.am         1    LIG   0.0000
   7 C7           2.3700     1.0000     1.0000 C.2          1    LIG   0.0000
   8 O8           2.9700    -0.0392     1.0000 O.2          1    LIG   0.0000
   9 C9           3.0942     2.2543     1.0000 C.2          1    LIG   0.0000
  10 N10          4.3891     2.4057     1.0000 N.2          1    LIG   0.0000
  11 N11          4.7240     3.6825     1.0042 N.pl3        1    LIG   0.0000
  12 C12          6.0297     4.1882     1.0051 C.ar         1    LIG   0.0000
  13 C13          7.1101     3.3114     1.0013 C.ar         1    LIG   0.0000
  14 C14          8.4090     3.8084     1.0013 C.ar         1    LIG   0.0000
  15 C15          8.6080     5.1855     1.0059 C.ar         1    LIG   0.0000
  16 C16         10.0251     5.7354     1.0062 C.3          1    LIG   0.0000
  17 C17         10.7581     5.2463     2.2447 C.3          1    LIG   0.0000
  18 C18         10.7553     5.2551    -0.2374 C.3          1    LIG   0.0000
  19 C19          7.5280     6.0618     1.0113 C.ar         1    LIG   0.0000
  20 C20          6.2289     5.5648     1.0106 C.ar         1    LIG   0.0000
  21 C21          3.5916     4.4456     1.0069 C.2          1    LIG   0.0000
  22 C22          2.5503     3.5637     1.0046 C.2          1    LIG   0.0000
  23 O23          1.2335     3.8758     1.0112 O.3          1    LIG  -1.0000
  24 N24          0.6321    -1.3246     0.2881 N.pl3        1    LIG   0.0000
  25 C25          1.7939    -1.4466    -0.6041 C.3          1    LIG   0.0000
  26 C26          2.8190    -2.3773     0.0232 C.3          1    LIG   0.0000
  27 C27         -0.2862    -2.2984     0.5533 C.ar         1    LIG   0.0000
  28 C28         -0.4700    -3.6155     0.1393 C.ar         1    LIG   0.0000
  29 C29         -1.5310    -4.3917     0.5946 C.ar         1    LIG   0.0000
  30 C30         -2.4341    -3.8292     1.4893 C.ar         1    LIG   0.0000
  31 C31         -2.2493    -2.5129     1.8989 C.ar         1    LIG   0.0000
  32 C32         -1.1828    -1.7468     1.4342 C.ar         1    LIG   0.0000
  33 H           -3.8786     2.7743     2.1893 H            1    LIG   0.0000
  34 H           -3.6544     1.7551     3.4453 H            1    LIG   0.0000
  35 H           -2.5272     2.8849     3.0993 H            1    LIG   0.0000
  36 H           -3.1700     0.6439     1.3957 H            1    LIG   0.0000
  37 H           -2.0428     1.7737     1.0496 H            1    LIG   0.0000
  38 H           -0.7931     1.1139     2.9663 H            1    LIG   0.0000
  39 H           -1.9203    -0.0158     3.3123 H            1    LIG   0.0000
  40 H            0.5000     1.8660     1.0000 H            1    LIG   0.0000
  41 H            6.9526     2.3239     0.9986 H            1    LIG   0.0000
  42 H            9.1900     3.1839     0.9980 H            1    LIG   0.0000
  43 H            9.9948     6.7349     1.0098 H            1    LIG   0.0000
  44 H           11.6904     5.6081     2.2449 H            1    LIG   0.0000
  45 H           10.2778     5.5623     3.0629 H            1    LIG   0.0000
  46 H           10.7885     4.2468     2.2411 H            1    LIG   0.0000
  47 H           11.6875     5.6168    -0.2372 H            1    LIG   0.0000
  48 H           10.7856     4.2555    -0.2410 H            1    LIG   0.0000
  49 H           10.2730     5.5768    -1.0522 H            1    LIG   0.0000
  50 H            7.6854     7.0493     1.0156 H            1    LIG   0.0000
  51 H            5.4479     6.1893     1.0141 H            1    LIG   0.0000
  52 H            3.5368     5.4441     1.0099 H            1    LIG   0.0000
  53 H            2.2034    -0.5450    -0.7433 H            1    LIG   0.0000
  54 H            1.5004    -1.8189    -1.4846 H            1    LIG   0.0000
  55 H            3.6094    -2.4603    -0.5838 H            1    LIG   0.0000
  56 H            3.1125    -2.0049     0.9037 H            1    LIG   0.0000
  57 H            2.4095    -3.2789     0.1624 H            1    LIG   0.0000
  58 H            0.1812    -4.0158    -0.5055 H            1    LIG   0.0000
  59 H           -1.6418    -5.3359     0.2843 H            1    LIG   0.0000
  60 H           -3.2060    -4.3636     1.8337 H            1    LIG   0.0000
  61 H           -2.8979    -2.1066     2.5426 H            1    LIG   0.0000
@<TRIPOS>BOND
   1        1        2 1
   2        2        3 1
   3        3        4 1
   4        4        5 2
   5        5        6 1
   6        6        7 am
   7        7        8 2
   8        7        9 1
   9        9       10 2
  10       10       11 1
  11       11       12 1
  12       12       13 ar
  13       13       14 ar
  14       14       15 ar
  15       15       16 1
  16       16       17 1
  17       16       18 1
  18       15       19 ar
  19       19       20 ar
  20       20       12 ar
  21       11       21 1
  22       21       22 2
  23       22        9 1
  24       22       23 1
  25        5       24 1
  26       24       25 1
  27       25       26 1
  28       24       27 1
  29       27       28 ar
  30       28       29 ar
  31       29       30 ar
  32       30       31 ar
  33       31       32 ar
  34       32       27 ar
  35       32        4 1
  36        1       33 1
  37        1       34 1
  38        1       35 1
  39        2       36 1
  40        2       37 1
  41        3       38 1
  42        3       39 1
  43        6       40 1
  44       13       41 1
  45       14       42 1
  46       16       43 1
  47       17       44 1
  48       17       45 1
  49       17       46 1
  50       18       47 1
  51       18       48 1
  52       18       49 1
  53       19       50 1
  54       20       51 1
  55       21       52 1
  56       25       53 1
  57       25       54 1
  58       26       55 1
  59       26       56 1
  60       26       57 1
  61       28       58 1
  62       29       59 1
  63       30       60 1
  64       31       61 1

@<TRIPOS>MOLECULE

  61   64
SMALL
USER_CHARGES
@<TRIPOS>ATOM
   1 C1          -0.7473     0.8412    -3.3645 C.3          1    LIG   0.0000
   2 C2          -0.9972     0.4078    -1.9292 C.3          1    LIG   0.0000
   3 C3           0.1603    -0.4537    -1.4513 C.3          1    LIG   0.0000
   4 N4          -0.0814    -0.8731    -0.0625 N.2          1    LIG   1.0000
   5 C5           0.2997    -0.2130     1.0000 C.2          1    LIG   0.0000
   6 N6           1.0000     1.0000     1.0000 N.am         1    LIG   0.0000
   7 C7           2.3700     1.0000     1.0000 C.2          1    LIG   0.0000
   8 O8           2.9700    -0.0392     1.0000 O.2          1    LIG   0.0000
   9 C9           3.0942     2.2543     1.0000 C.2          1    LIG   0.0000
  10 N10          4.3891     2.4057     1.0000 N.2          1    LIG   0.0000
  11 N11          4.7240     3.6825     1.0042 N.pl3        1    LIG   0.0000
  12 C12          6.0297     4.1882     1.0051 C.ar         1    LIG   0.0000
  13 C13          7.0513     3.4644     0.3980 C.ar         1    LIG   0.0000
  14 C14          8.3497     3.9625     0.3952 C.ar         1    LIG   0.0000
  15 C15          8.6078     5.1860     1.0054 C.ar         1    LIG   0.0000
  16 C16         10.0248     5.7362     1.0063 C.3          1    LIG   0.0000
  17 C17         10.7555     5.2561    -0.2371 C.3          1    LIG   0.0000
  18 C18          9.9786     7.2554     1.0119 C.3          1    LIG   0.0000
  19 C19          7.5868     5.9087     1.6136 C.ar         1    LIG   0.0000
  20 C20          6.2881     5.4109     1.6158 C.ar         1    LIG   0.0000
  21 C21          3.5916     4.4456     1.0069 C.2          1    LIG   0.0000
  22 C22          2.5503     3.5637     1.0046 C.2          1    LIG   0.0000
  23 O23          1.2335     3.8758     1.0112 O.3          1    LIG  -1.0000
  24 N24         -0.0959    -0.9043     2.1039 N.pl3        1    LIG   0.0000
  25 C25          0.1395    -0.4914     3.4949 C.3          1    LIG   0.0000
  26 C26         -1.0169     0.3734     3.9694 C.3          1    LIG   0.0000
  27 C27         -0.7514    -2.0298     1.6972 C.ar         1    LIG   0.0000
  28 C28         -1.3710    -3.0952     2.3459 C.ar         1    LIG   0.0000
  29 C29         -1.9790    -4.1331     1.6466 C.ar         1    LIG   0.0000
  30 C30         -1.9628    -4.1013     0.2569 C.ar         1    LIG   0.0000
  31 C31         -1.3411    -3.0373    -0.3879 C.ar         1    LIG   0.0000
  32 C32         -0.7353    -2.0051     0.3249 C.ar         1    LIG   0.0000
  33 H           -1.5089     1.4080    -3.6789 H            1    LIG   0.0000
  34 H            0.1014     1.3680    -3.4106 H            1    LIG   0.0000
  35 H           -0.6702     0.0329    -3.9482 H            1    LIG   0.0000
  36 H           -1.0744     1.2161    -1.3455 H            1    LIG   0.0000
  37 H           -1.8460    -0.1190    -1.8830 H            1    LIG   0.0000
  38 H            0.2375    -1.2620    -2.0350 H            1    LIG   0.0000
  39 H            1.0091     0.0731    -1.4974 H            1    LIG   0.0000
  40 H            0.5000     1.8660     1.0000 H            1    LIG   0.0000
  41 H            6.8518     2.5860    -0.0364 H            1    LIG   0.0000
  42 H            9.0885     3.4478    -0.0398 H            1    LIG   0.0000
  43 H           10.5068     5.4143     1.8212 H            1    LIG   0.0000
  44 H           11.6877     5.6180    -0.2366 H            1    LIG   0.0000
  45 H           10.7859     4.2566    -0.2408 H            1    LIG   0.0000
  46 H           10.2735     5.5779    -1.0521 H            1    LIG   0.0000
  47 H           10.9108     7.6173     1.0125 H            1    LIG   0.0000
  48 H            9.4966     7.5773     0.1970 H            1    LIG   0.0000
  49 H            9.4979     7.5713     1.8300 H            1    LIG   0.0000
  50 H            7.7866     6.7863     2.0494 H            1    LIG   0.0000
  51 H            5.5494     5.9256     2.0510 H            1    LIG   0.0000
  52 H            3.5368     5.4441     1.0099 H            1    LIG   0.0000
  53 H            0.9904     0.0313     3.5480 H            1    LIG   0.0000
  54 H            0.2097    -1.3023     4.0759 H            1    LIG   0.0000
  55 H           -0.8567     0.6543     4.9157 H            1    LIG   0.0000
  56 H           -1.0870     1.1843     3.3884 H            1    LIG   0.0000
  57 H           -1.8677    -0.1493     3.9164 H            1    LIG   0.0000
  58 H           -1.3792    -3.1149     3.3457 H            1    LIG   0.0000
  59 H           -2.4191    -4.8871     2.1342 H            1    LIG   0.0000
  60 H           -2.3923    -4.8334    -0.2718 H            1    LIG   0.0000
  61 H           -1.3286    -3.0126    -1.3876 H            1    LIG   0.0000
@<TRIPOS>BOND
   1        1        2 1
   2        2        3 1
   3        3        4 1
   4        4        5 2
   5        5        6 1
   6        6        7 am
   7        7        8 2
   8        7        9 1
   9        9       10 2
  10       10       11 1
  11       11       12 1
  12       12       13 ar
  13       13       14 ar
  14       14       15 ar
  15       15       16 1
  16       16       17 1
  17       16       18 1
  18       15       19 ar
  19       19       20 ar
  20       20       12 ar
  21       11       21 1
  22       21       22 2
  23       22        9 1
  24       22       23 1
  25        5       24 1
  26       24       25 1
  27       25       26 1
  28       24       27 1
  29       27       28 ar
  30       28       29 ar
  31       29       30 ar
  32       30       31 ar
  33       31       32 ar
  34       32       27 ar
  35       32        4 1
  36        1       33 1
  37        1       34 1
  38        1       35 1
  39        2       36 1
  40        2       37 1
  41        3       38 1
  42        3       39 1
  43        6       40 1
  44       13       41 1
  45       14       42 1
  46       16       43 1
  47       17       44 1
  48       17       45 1
  49       17       46 1
  50       18       47 1
  51       18       48 1
  52       18       49 1
  53       19       50 1
  54       20       51 1
  55       21       52 1
  56       25       53 1
  57       25       54 1
  58       26       55 1
  59       26       56 1
  60       26       57 1
  61       28       58 1
  62       29       59 1
  63       30       60 1
  64       31       61 1

@<TRIPOS>MOLECULE

  61   64
SMALL
USER_CHARGES
@<TRIPOS>ATOM
   1 C1           1.9775    -0.2296    -3.1272 C.3          1    LIG   0.0000
   2 C2           1.4845    -1.0262    -1.9302 C.3          1    LIG   0.0000
   3 C3           0.1603    -0.4537    -1.4513 C.3          1    LIG   0.0000
   4 N4          -0.0814    -0.8731    -0.0625 N.2          1    LIG   1.0000
   5 C5           0.2997    -0.2130     1.0000 C.2          1    LIG   0.0000
   6 N6           1.0000     1.0000     1.0000 N.am         1    LIG   0.0000
   7 C7           2.3700     1.0000     1.0000 C.2          1    LIG   0.0000
   8 O8           2.9700    -0.0392     1.0000 O.2          1    LIG   0.0000
   9 C9           3.0942     2.2543     1.0000 C.2          1    LIG   0.0000
  10 N10          4.3891     2.4057     1.0000 N.2          1    LIG   0.0000
  11 N11          4.7240     3.6825     1.0042 N.pl3        1    LIG   0.0000
  12 C12          6.0297     4.1882     1.0051 C.ar         1    LIG   0.0000
  13 C13          7.0521     3.4602     1.6058 C.ar         1    LIG   0.0000
  14 C14          8.3508     3.9574     1.6087 C.ar         1    LIG   0.0000
  15 C15          8.6081     5.1852     1.0066 C.ar         1    LIG   0.0000
  16 C16         10.0254     5.7347     1.0065 C.3          1    LIG   0.0000
  17 C17          9.9798     7.2540     1.0118 C.3          1    LIG   0.0000
  18 C18         10.7586     5.2455     2.2449 C.3          1    LIG   0.0000
  19 C19          7.5858     5.9135     0.4076 C.ar         1    LIG   0.0000
  20 C20          6.2870     5.4159     0.4041 C.ar         1    LIG   0.0000
  21 C21          3.5916     4.4456     1.0069 C.2          1    LIG   0.0000
  22 C22          2.5503     3.5637     1.0046 C.2          1    LIG   0.0000
  23 O23          1.2335     3.8758     1.0112 O.3          1    LIG  -1.0000
  24 N24         -0.0959    -0.9043     2.1039 N.pl3        1    LIG   0.0000
  25 C25          0.1395    -0.4914     3.4949 C.3          1    LIG   0.0000
  26 C26          1.6274    -0.2697     3.7126 C.3          1    LIG   0.0000
  27 C27         -0.7514    -2.0298     1.6972 C.ar         1    LIG   0.0000
  28 C28         -1.3710    -3.0952     2.3459 C.ar         1    LIG   0.0000
  29 C29         -1.9790    -4.1331     1.6466 C.ar         1    LIG   0.0000
  30 C30         -1.9628    -4.1013     0.2569 C.ar         1    LIG   0.0000
  31 C31         -1.3411    -3.0373    -0.3879 C.ar         1    LIG   0.0000
  32 C32         -0.7353    -2.0051     0.3249 C.ar         1    LIG   0.0000
  33 H            2.8486    -0.6062    -3.4423 H            1    LIG   0.0000
  34 H            1.3042    -0.2849    -3.8646 H            1    LIG   0.0000
  35 H            2.1039     0.7263    -2.8623 H            1    LIG   0.0000
  36 H            1.3580    -1.9821    -2.1951 H            1    LIG   0.0000
  37 H            2.1577    -0.9709    -1.1929 H            1    LIG   0.0000
  38 H            0.1928     0.5447    -1.4971 H            1    LIG   0.0000
  39 H           -0.5788    -0.7903    -2.0346 H            1    LIG   0.0000
  40 H            0.5000     1.8660     1.0000 H            1    LIG   0.0000
  41 H            6.8530     2.5794     2.0354 H            1    LIG   0.0000
  42 H            9.0905     3.4392     2.0381 H            1    LIG   0.0000
  43 H           10.5055     5.4185     0.1883 H            1    LIG   0.0000
  44 H           10.9122     7.6155     1.0117 H            1    LIG   0.0000
  45 H            9.4974     7.5758     0.1971 H            1    LIG   0.0000
  46 H            9.4997     7.5702     1.8301 H            1    LIG   0.0000
  47 H           11.6910     5.6070     2.2448 H            1    LIG   0.0000
  48 H           10.2785     5.5617     3.0632 H            1    LIG   0.0000
  49 H           10.7886     4.2460     2.2414 H            1    LIG   0.0000
  50 H            7.7846     6.7951    -0.0206 H            1    LIG   0.0000
  51 H            5.5474     5.9344    -0.0252 H            1    LIG   0.0000
  52 H            3.5368     5.4441     1.0099 H            1    LIG   0.0000
  53 H           -0.1851    -1.2063     4.1143 H            1    LIG   0.0000
  54 H           -0.3545     0.3584     3.6786 H            1    LIG   0.0000
  55 H            1.7876     0.0111     4.6589 H            1    LIG   0.0000
  56 H            2.1215    -1.1196     3.5290 H            1    LIG   0.0000
  57 H            1.9521     0.4451     3.0933 H            1    LIG   0.0000
  58 H           -1.3792    -3.1149     3.3457 H            1    LIG   0.0000
  59 H           -2.4191    -4.8871     2.1342 H            1    LIG   0.0000
  60 H           -2.3923    -4.8334    -0.2718 H            1    LIG   0.0000
  61 H           -1.3286    -3.0126    -1.3876 H            1    LIG   0.0000
@<TRIPOS>BOND
   1        1        2 1
   2        2        3 1
   3        3        4 1
   4        4        5 2
   5        5        6 1
   6        6        7 am
   7        7        8 2
   8        7        9 1
   9        9       10 2
  10       10       11 1
  11       11       12 1
  12       12       13 ar
  13       13       14 ar
  14       14       15 ar
  15       15       16 1
  16       16       17 1
  17       16       18 1
  18       15       19 ar
  19       19       20 ar
  20       20       12 ar
  21       11       21 1
  22       21       22 2
  23       22        9 1
  24       22       23 1
  25        5       24 1
  26       24       25 1
  27       25       26 1
  28       24       27 1
  29       27       28 ar
  30       28       29 ar
  31       29       30 ar
  32       30       31 ar
  33       31       32 ar
  34       32       27 ar
  35       32        4 1
  36        1       33 1
  37        1       34 1
  38        1       35 1
  39        2       36 1
  40        2       37 1
  41        3       38 1
  42        3       39 1
  43        6       40 1
  44       13       41 1
  45       14       42 1
  46       16       43 1
  47       17       44 1
  48       17       45 1
  49       17       46 1
  50       18       47 1
  51       18       48 1
  52       18       49 1
  53       19       50 1
  54       20       51 1
  55       21       52 1
  56       25       53 1
  57       25       54 1
  58       26       55 1
  59       26       56 1
  60       26       57 1
  61       28       58 1
  62       29       59 1
  63       30       60 1
  64       31       61 1

@<TRIPOS>MOLECULE

  61   64
SMALL
USER_CHARGES
@<TRIPOS>ATOM
   1 C1          -1.6029     1.3352     4.9038 C.3          1    LIG   0.0000
   2 C2          -0.9010     0.3522     3.9810 C.3          1    LIG   0.0000
   3 C3          -1.4654     0.4849     2.5759 C.3          1    LIG   0.0000
   4 N4          -0.7863    -0.4661     1.6830 N.2          1    LIG   1.0000
   5 C5           0.2997    -0.2130     1.0000 C.2          1    LIG   0.0000
   6 N6           1.0000     1.0000     1.0000 N.am         1    LIG   0.0000
   7 C7           2.3700     1.0000     1.0000 C.2          1    LIG   0.0000
   8 O8           2.9700    -0.0392     1.0000 O.2          1    LIG   0.0000
   9 C9           3.0942     2.2543     1.0000 C.2          1    LIG   0.0000
  10 N10          4.3345     2.4373     1.3577 N.2          1    LIG   0.0000
  11 N11          4.6863     3.7042     1.2425 N.pl3        1    LIG   0.0000
  12 C12          5.9459     4.2366     1.5436 C.ar         1    LIG   0.0000
  13 C13          6.9557     3.4005     2.0100 C.ar         1    LIG   0.0000
  14 C14          8.2088     3.9239     2.3097 C.ar         1    LIG   0.0000
  15 C15          8.4334     5.2863     2.1375 C.ar         1    LIG   0.0000
  16 C16          9.8007     5.8650     2.4635 C.3          1    LIG   0.0000
  17 C17         10.8678     4.8092     2.2246 C.3          1    LIG   0.0000
  18 C18         10.0681     7.0664     1.5716 C.3          1    LIG   0.0000
  19 C19          7.4235     6.1221     1.6728 C.ar         1    LIG   0.0000
  20 C20          6.1704     5.5986     1.3724 C.ar         1    LIG   0.0000
  21 C21          3.6243     4.4267     0.7791 C.2          1    LIG   0.0000
  22 C22          2.6077     3.5305     0.6193 C.2          1    LIG   0.0000
  23 O23          1.3567     3.8046     0.1821 O.3          1    LIG  -1.0000
  24 N24          0.6321    -1.3246     0.2881 N.pl3        1    LIG   0.0000
  25 C25          1.7939    -1.4466    -0.6041 C.3          1    LIG   0.0000
  26 C26          2.6380    -2.6363    -0.1770 C.3          1    LIG   0.0000
  27 C27         -0.2862    -2.2984     0.5533 C.ar         1    LIG   0.0000
  28 C28         -0.4700    -3.6155     0.1393 C.ar         1    LIG   0.0000
  29 C29         -1.5310    -4.3917     0.5946 C.ar         1    LIG   0.0000
  30 C30         -2.4341    -3.8292     1.4893 C.ar         1    LIG   0.0000
  31 C31         -2.2493    -2.5129     1.8989 C.ar         1    LIG   0.0000
  32 C32         -1.1828    -1.7468     1.4342 C.ar         1    LIG   0.0000
  33 H           -1.2315     1.2479     5.8282 H            1    LIG   0.0000
  34 H           -1.4558     2.2670     4.5722 H            1    LIG   0.0000
  35 H           -2.5830     1.1373     4.9182 H            1    LIG   0.0000
  36 H            0.0791     0.5501     3.9666 H            1    LIG   0.0000
  37 H           -1.0481    -0.5796     4.3127 H            1    LIG   0.0000
  38 H           -2.4455     0.2871     2.5903 H            1    LIG   0.0000
  39 H           -1.3183     1.4168     2.2442 H            1    LIG   0.0000
  40 H            0.5000     1.8660     1.0000 H            1    LIG   0.0000
  41 H            6.7803     2.4233     2.1297 H            1    LIG   0.0000
  42 H            8.9392     3.3287     2.6447 H            1    LIG   0.0000
  43 H            9.8222     6.1498     3.4218 H            1    LIG   0.0000
  44 H           11.7673     5.1899     2.4391 H            1    LIG   0.0000
  45 H           10.6918     4.0187     2.8114 H            1    LIG   0.0000
  46 H           10.8463     4.5243     1.2663 H            1    LIG   0.0000
  47 H           10.9676     7.4471     1.7860 H            1    LIG   0.0000
  48 H           10.0466     6.7815     0.6133 H            1    LIG   0.0000
  49 H            9.3661     7.7610     1.7287 H            1    LIG   0.0000
  50 H            7.5984     7.0996     1.5546 H            1    LIG   0.0000
  51 H            5.4400     6.1939     1.0375 H            1    LIG   0.0000
  52 H            3.5971     5.4092     0.5949 H            1    LIG   0.0000
  53 H            2.3431    -0.6125    -0.5522 H            1    LIG   0.0000
  54 H            1.4798    -1.5809    -1.5439 H            1    LIG   0.0000
  55 H            3.4284    -2.7193    -0.7840 H            1    LIG   0.0000
  56 H            2.9521    -2.5020     0.7628 H            1    LIG   0.0000
  57 H            2.0889    -3.4704    -0.2289 H            1    LIG   0.0000
  58 H            0.1812    -4.0158    -0.5055 H            1    LIG   0.0000
  59 H           -1.6418    -5.3359     0.2843 H            1    LIG   0.0000
  60 H           -3.2060    -4.3636     1.8337 H            1    LIG   0.0000
  61 H           -2.8979    -2.1066     2.5426 H            1    LIG   0.0000
@<TRIPOS>BOND
   1        1        2 1
   2        2        3 1
   3        3        4 1
   4        4        5 2
   5        5        6 1
   6        6        7 am
   7        7        8 2
   8        7        9 1
   9        9       10 2
  10       10       11 1
  11       11       12 1
  12       12       13 ar
  13       13       14 ar
  14       14       15 ar
  15       15       16 1
  16       16       17 1
  17       16       18 1
  18       15       19 ar
  19       19       20 ar
  20       20       12 ar
  21       11       21 1
  22       21       22 2
  23       22        9 1
  24       22       23 1
  25        5       24 1
  26       24       25 1
  27       25       26 1
  28       24       27 1
  29       27       28 ar
  30       28       29 ar
  31       29       30 ar
  32       30       31 ar
  33       31       32 ar
  34       32       27 ar
  35       32        4 1
  36        1       33 1
  37        1       34 1
  38        1       35 1
  39        2       36 1
  40        2       37 1
  41        3       38 1
  42        3       39 1
  43        6       40 1
  44       13       41 1
  45       14       42 1
  46       16       43 1
  47       17       44 1
  48       17       45 1
  49       17       46 1
  50       18       47 1
  51       18       48 1
  52       18       49 1
  53       19       50 1
  54       20       51 1
  55       21       52 1
  56       25       53 1
  57       25       54 1
  58       26       55 1
  59       26       56 1
  60       26       57 1
  61       28       58 1
  62       29       59 1
  63       30       60 1
  64       31       61 1

@<TRIPOS>MOLECULE

  61   64
SMALL
USER_CHARGES
@<TRIPOS>ATOM
   1 C1          -1.9915     1.0241    -2.9406 C.3          1    LIG   0.0000
   2 C2          -1.2893     0.0409    -2.0183 C.3          1    LIG   0.0000
   3 C3          -1.4658     0.4851    -0.5754 C.3          1    LIG   0.0000
   4 N4          -0.7863    -0.4661     0.3170 N.2          1    LIG   1.0000
   5 C5           0.2997    -0.2130     1.0000 C.2          1    LIG   0.0000
   6 N6           1.0000     1.0000     1.0000 N.am         1    LIG   0.0000
   7 C7           2.3700     1.0000     1.0000 C.2          1    LIG   0.0000
   8 O8           2.9700    -0.0392     1.0000 O.2          1    LIG   0.0000
   9 C9           3.0942     2.2543     1.0000 C.2          1    LIG   0.0000
  10 N10          4.3345     2.4373     1.3577 N.2          1    LIG   0.0000
  11 N11          4.6863     3.7042     1.2425 N.pl3        1    LIG   0.0000
  12 C12          5.9459     4.2366     1.5436 C.ar         1    LIG   0.0000
  13 C13          6.9557     3.4005     2.0100 C.ar         1    LIG   0.0000
  14 C14          8.2088     3.9239     2.3097 C.ar         1    LIG   0.0000
  15 C15          8.4334     5.2863     2.1375 C.ar         1    LIG   0.0000
  16 C16          9.8007     5.8650     2.4635 C.3          1    LIG   0.0000
  17 C17          9.6451     7.3065     2.9196 C.3          1    LIG   0.0000
  18 C18         10.4448     5.0493     3.5726 C.3          1    LIG   0.0000
  19 C19          7.4235     6.1221     1.6728 C.ar         1    LIG   0.0000
  20 C20          6.1704     5.5986     1.3724 C.ar         1    LIG   0.0000
  21 C21          3.6243     4.4267     0.7791 C.2          1    LIG   0.0000
  22 C22          2.6077     3.5305     0.6193 C.2          1    LIG   0.0000
  23 O23          1.3567     3.8046     0.1821 O.3          1    LIG  -1.0000
  24 N24          0.6355    -1.3265     1.7073 N.pl3        1    LIG   0.0000
  25 C25          1.7945    -1.4469     2.6033 C.3          1    LIG   0.0000
  26 C26          2.8151    -2.3901     1.9875 C.3          1    LIG   0.0000
  27 C27         -0.2883    -2.2972     1.4496 C.ar         1    LIG   0.0000
  28 C28         -0.4764    -3.6118     1.8695 C.ar         1    LIG   0.0000
  29 C29         -1.5459    -4.3831     1.4259 C.ar         1    LIG   0.0000
  30 C30         -2.4511    -3.8194     0.5340 C.ar         1    LIG   0.0000
  31 C31         -2.2591    -2.5072     0.1146 C.ar         1    LIG   0.0000
  32 C32         -1.1831    -1.7466     0.5663 C.ar         1    LIG   0.0000
  33 H           -1.8755     0.7318    -3.8899 H            1    LIG   0.0000
  34 H           -2.9659     1.0528    -2.7175 H            1    LIG   0.0000
  35 H           -1.5952     1.9344    -2.8213 H            1    LIG   0.0000
  36 H           -1.6856    -0.8694    -2.1376 H            1    LIG   0.0000
  37 H           -0.3150     0.0122    -2.2414 H            1    LIG   0.0000
  38 H           -1.0695     1.3955    -0.4561 H            1    LIG   0.0000
  39 H           -2.4401     0.5139    -0.3523 H            1    LIG   0.0000
  40 H            0.5000     1.8660     1.0000 H            1    LIG   0.0000
  41 H            6.7803     2.4233     2.1297 H            1    LIG   0.0000
  42 H            8.9392     3.3287     2.6447 H            1    LIG   0.0000
  43 H           10.3788     5.8339     1.6481 H            1    LIG   0.0000
  44 H           10.5446     7.6872     3.1340 H            1    LIG   0.0000
  45 H            9.2214     7.8432     2.1899 H            1    LIG   0.0000
  46 H            9.0670     7.3376     3.7349 H            1    LIG   0.0000
  47 H           11.3443     5.4300     3.7871 H            1    LIG   0.0000
  48 H            9.8666     5.0804     4.3880 H            1    LIG   0.0000
  49 H           10.5471     4.1009     3.2725 H            1    LIG   0.0000
  50 H            7.5984     7.0996     1.5546 H            1    LIG   0.0000
  51 H            5.4400     6.1939     1.0375 H            1    LIG   0.0000
  52 H            3.5971     5.4092     0.5949 H            1    LIG   0.0000
  53 H            1.4968    -1.8087     3.4867 H            1    LIG   0.0000
  54 H            2.2094    -0.5465     2.7345 H            1    LIG   0.0000
  55 H            3.6036    -2.4720     2.5971 H            1    LIG   0.0000
  56 H            2.4003    -3.2905     1.8563 H            1    LIG   0.0000
  57 H            3.1129    -2.0284     1.1041 H            1    LIG   0.0000
  58 H            0.1779    -4.0139     2.5101 H            1    LIG   0.0000
  59 H           -1.6612    -5.3247     1.7424 H            1    LIG   0.0000
  60 H           -3.2295    -4.3501     0.1986 H            1    LIG   0.0000
  61 H           -2.9094    -2.1000    -0.5268 H            1    LIG   0.0000
@<TRIPOS>BOND
   1        1        2 1
   2        2        3 1
   3        3        4 1
   4        4        5 2
   5        5        6 1
   6        6        7 am
   7        7        8 2
   8        7        9 1
   9        9       10 2
  10       10       11 1
  11       11       12 1
  12       12       13 ar
  13       13       14 ar
  14       14       15 ar
  15       15       16 1
  16       16       17 1
  17       16       18 1
  18       15       19 ar
  19       19       20 ar
  20       20       12 ar
  21       11       21 1
  22       21       22 2
  23       22        9 1
  24       22       23 1
  25        5       24 1
  26       24       25 1
  27       25       26 1
  28       24       27 1
  29       27       28 ar
  30       28       29 ar
  31       29       30 ar
  32       30       31 ar
  33       31       32 ar
  34       32       27 ar
  35       32        4 1
  36        1       33 1
  37        1       34 1
  38        1       35 1
  39        2       36 1
  40        2       37 1
  41        3       38 1
  42        3       39 1
  43        6       40 1
  44       13       41 1
  45       14       42 1
  46       16       43 1
  47       17       44 1
  48       17       45 1
  49       17       46 1
  50       18       47 1
  51       18       48 1
  52       18       49 1
  53       19       50 1
  54       20       51 1
  55       21       52 1
  56       25       53 1
  57       25       54 1
  58       26       55 1
  59       26       56 1
  60       26       57 1
  61       28       58 1
  62       29       59 1
  63       30       60 1
  64       31       61 1

@<TRIPOS>MOLECULE

  61   64
SMALL
USER_CHARGES
@<TRIPOS>ATOM
   1 C1          -3.4897     1.8890     2.8790 C.3          1    LIG   0.0000
   2 C2          -2.7879     0.9061     1.9561 C.3          1    LIG   0.0000
   3 C3          -1.4654     0.4849     2.5759 C.3          1    LIG   0.0000
   4 N4          -0.7863    -0.4661     1.6830 N.2          1    LIG   1.0000
   5 C5           0.2997    -0.2130     1.0000 C.2          1    LIG   0.0000
   6 N6           1.0000     1.0000     1.0000 N.am         1    LIG   0.0000
   7 C7           2.3700     1.0000     1.0000 C.2          1    LIG   0.0000
   8 O8           2.9700    -0.0392     1.0000 O.2          1    LIG   0.0000
   9 C9           3.0942     2.2543     1.0000 C.2          1    LIG   0.0000
  10 N10          4.3345     2.4373     1.3577 N.2          1    LIG   0.0000
  11 N11          4.6863     3.7042     1.2425 N.pl3        1    LIG   0.0000
  12 C12          5.9459     4.2366     1.5436 C.ar         1    LIG   0.0000
  13 C13          6.9557     3.4005     2.0100 C.ar         1    LIG   0.0000
  14 C14          8.2088     3.9239     2.3097 C.ar         1    LIG   0.0000
  15 C15          8.4334     5.2863     2.1375 C.ar         1    LIG   0.0000
  16 C16          9.8007     5.8650     2.4635 C.3          1    LIG   0.0000
  17 C17          9.6451     7.3065     2.9196 C.3          1    LIG   0.0000
  18 C18         10.4448     5.0493     3.5726 C.3          1    LIG   0.0000
  19 C19          7.4235     6.1221     1.6728 C.ar         1    LIG   0.0000
  20 C20          6.1704     5.5986     1.3724 C.ar         1    LIG   0.0000
  21 C21          3.6243     4.4267     0.7791 C.2          1    LIG   0.0000
  22 C22          2.6077     3.5305     0.6193 C.2          1    LIG   0.0000
  23 O23          1.3567     3.8046     0.1821 O.3          1    LIG  -1.0000
  24 N24          0.6321    -1.3246     0.2881 N.pl3        1    LIG   0.0000
  25 C25          1.7939    -1.4466    -0.6041 C.3          1    LIG   0.0000
  26 C26          1.3308    -1.8947    -1.9807 C.3          1    LIG   0.0000
  27 C27         -0.2862    -2.2984     0.5533 C.ar         1    LIG   0.0000
  28 C28         -0.4700    -3.6155     0.1393 C.ar         1    LIG   0.0000
  29 C29         -1.5310    -4.3917     0.5946 C.ar         1    LIG   0.0000
  30 C30         -2.4341    -3.8292     1.4893 C.ar         1    LIG   0.0000
  31 C31         -2.2493    -2.5129     1.8989 C.ar         1    LIG   0.0000
  32 C32         -1.1828    -1.7468     1.4342 C.ar         1    LIG   0.0000
  33 H           -4.3597     2.1661     2.4712 H            1    LIG   0.0000
  34 H           -3.6596     1.4533     3.7629 H            1    LIG   0.0000
  35 H           -2.9115     2.6943     3.0100 H            1    LIG   0.0000
  36 H           -3.3661     0.1008     1.8251 H            1    LIG   0.0000
  37 H           -2.6180     1.3418     1.0722 H            1    LIG   0.0000
  38 H           -0.8872     1.2902     2.7069 H            1    LIG   0.0000
  39 H           -1.6353     0.0492     3.4598 H            1    LIG   0.0000
  40 H            0.5000     1.8660     1.0000 H            1    LIG   0.0000
  41 H            6.7803     2.4233     2.1297 H            1    LIG   0.0000
  42 H            8.9392     3.3287     2.6447 H            1    LIG   0.0000
  43 H           10.3788     5.8339     1.6481 H            1    LIG   0.0000
  44 H           10.5446     7.6872     3.1340 H            1    LIG   0.0000
  45 H            9.2214     7.8432     2.1899 H            1    LIG   0.0000
  46 H            9.0670     7.3376     3.7349 H            1    LIG   0.0000
  47 H           11.3443     5.4300     3.7871 H            1    LIG   0.0000
  48 H            9.8666     5.0804     4.3880 H            1    LIG   0.0000
  49 H           10.5471     4.1009     3.2725 H            1    LIG   0.0000
  50 H            7.5984     7.0996     1.5546 H            1    LIG   0.0000
  51 H            5.4400     6.1939     1.0375 H            1    LIG   0.0000
  52 H            3.5971     5.4092     0.5949 H            1    LIG   0.0000
  53 H            2.4314    -2.1208    -0.2311 H            1    LIG   0.0000
  54 H            2.2516    -0.5606    -0.6785 H            1    LIG   0.0000
  55 H            2.1211    -1.9777    -2.5877 H            1    LIG   0.0000
  56 H            0.8731    -2.7808    -1.9063 H            1    LIG   0.0000
  57 H            0.6933    -1.2206    -2.3538 H            1    LIG   0.0000
  58 H            0.1812    -4.0158    -0.5055 H            1    LIG   0.0000
  59 H           -1.6418    -5.3359     0.2843 H            1    LIG   0.0000
  60 H           -3.2060    -4.3636     1.8337 H            1    LIG   0.0000
  61 H           -2.8979    -2.1066     2.5426 H            1    LIG   0.0000
@<TRIPOS>BOND
   1        1        2 1
   2        2        3 1
   3        3        4 1
   4        4        5 2
   5        5        6 1
   6        6        7 am
   7        7        8 2
   8        7        9 1
   9        9       10 2
  10       10       11 1
  11       11       12 1
  12       12       13 ar
  13       13       14 ar
  14       14       15 ar
  15       15       16 1
  16       16       17 1
  17       16       18 1
  18       15       19 ar
  19       19       20 ar
  20       20       12 ar
  21       11       21 1
  22       21       22 2
  23       22        9 1
  24       22       23 1
  25        5       24 1
  26       24       25 1
  27       25       26 1
  28       24       27 1
  29       27       28 ar
  30       28       29 ar
  31       29       30 ar
  32       30       31 ar
  33       31       32 ar
  34       32       27 ar
  35       32        4 1
  36        1       33 1
  37        1       34 1
  38        1       35 1
  39        2       36 1
  40        2       37 1
  41        3       38 1
  42        3       39 1
  43        6       40 1
  44       13       41 1
  45       14       42 1
  46       16       43 1
  47       17       44 1
  48       17       45 1
  49       17       46 1
  50       18       47 1
  51       18       48 1
  52       18       49 1
  53       19       50 1
  54       20       51 1
  55       21       52 1
  56       25       53 1
  57       25       54 1
  58       26       55 1
  59       26       56 1
  60       26       57 1
  61       28       58 1
  62       29       59 1
  63       30       60 1
  64       31       61 1

@<TRIPOS>MOLECULE

  61   64
SMALL
USER_CHARGES
@<TRIPOS>ATOM
   1 C1          -2.8390     2.5523    -0.5320 C.3          1    LIG   0.0000
   2 C2          -2.4970     1.2737     0.2153 C.3          1    LIG   0.0000
   3 C3          -1.4658     0.4851    -0.5754 C.3          1    LIG   0.0000
   4 N4          -0.7863    -0.4661     0.3170 N.2          1    LIG   1.0000
   5 C5           0.2997    -0.2130     1.0000 C.2          1    LIG   0.0000
   6 N6           1.0000     1.0000     1.0000 N.am         1    LIG   0.0000
   7 C7           2.3700     1.0000     1.0000 C.2          1    LIG   0.0000
   8 O8           2.9700    -0.0392     1.0000 O.2          1    LIG   0.0000
   9 C9           3.0942     2.2543     1.0000 C.2          1    LIG   0.0000
  10 N10          4.3345     2.4373     1.3577 N.2          1    LIG   0.0000
  11 N11          4.6863     3.7042     1.2425 N.pl3        1    LIG   0.0000
  12 C12          5.9459     4.2366     1.5436 C.ar         1    LIG   0.0000
  13 C13          7.0822     3.4465     1.3994 C.ar         1    LIG   0.0000
  14 C14          8.3357     3.9705     1.6962 C.ar         1    LIG   0.0000
  15 C15          8.4333     5.2867     2.1368 C.ar         1    LIG   0.0000
  16 C16          9.8004     5.8657     2.4633 C.3          1    LIG   0.0000
  17 C17         10.8678     4.8102     2.2248 C.3          1    LIG   0.0000
  18 C18         10.0679     7.0673     1.5717 C.3          1    LIG   0.0000
  19 C19          7.2973     6.0759     2.2824 C.ar         1    LIG   0.0000
  20 C20          6.0437     5.5520     1.9849 C.ar         1    LIG   0.0000
  21 C21          3.6243     4.4267     0.7791 C.2          1    LIG   0.0000
  22 C22          2.6077     3.5305     0.6193 C.2          1    LIG   0.0000
  23 O23          1.3567     3.8046     0.1821 O.3          1    LIG  -1.0000
  24 N24          0.6355    -1.3265     1.7073 N.pl3        1    LIG   0.0000
  25 C25          1.7945    -1.4469     2.6033 C.3          1    LIG   0.0000
  26 C26          2.8151    -2.3901     1.9875 C.3          1    LIG   0.0000
  27 C27         -0.2883    -2.2972     1.4496 C.ar         1    LIG   0.0000
  28 C28         -0.4764    -3.6118     1.8695 C.ar         1    LIG   0.0000
  29 C29         -1.5459    -4.3831     1.4259 C.ar         1    LIG   0.0000
  30 C30         -2.4511    -3.8194     0.5340 C.ar         1    LIG   0.0000
  31 C31         -2.2591    -2.5072     0.1146 C.ar         1    LIG   0.0000
  32 C32         -1.1831    -1.7466     0.5663 C.ar         1    LIG   0.0000
  33 H           -3.5175     3.0711    -0.0118 H            1    LIG   0.0000
  34 H           -2.0125     3.1038    -0.6447 H            1    LIG   0.0000
  35 H           -3.2122     2.3234    -1.4311 H            1    LIG   0.0000
  36 H           -2.1239     1.5027     1.1144 H            1    LIG   0.0000
  37 H           -3.3236     0.7222     0.3280 H            1    LIG   0.0000
  38 H           -1.9215    -0.0155    -1.3114 H            1    LIG   0.0000
  39 H           -0.7935     1.1138    -0.9664 H            1    LIG   0.0000
  40 H            0.5000     1.8660     1.0000 H            1    LIG   0.0000
  41 H            6.9975     2.5019     1.0824 H            1    LIG   0.0000
  42 H            9.1566     3.4085     1.5943 H            1    LIG   0.0000
  43 H            9.8216     6.1505     3.4217 H            1    LIG   0.0000
  44 H           11.7671     5.1911     2.4395 H            1    LIG   0.0000
  45 H           10.6919     4.0197     2.8114 H            1    LIG   0.0000
  46 H           10.8466     4.5254     1.2664 H            1    LIG   0.0000
  47 H           10.9672     7.4482     1.7864 H            1    LIG   0.0000
  48 H           10.0467     6.7825     0.6133 H            1    LIG   0.0000
  49 H            9.3656     7.7617     1.7286 H            1    LIG   0.0000
  50 H            7.3819     7.0200     2.6010 H            1    LIG   0.0000
  51 H            5.2229     6.1141     2.0871 H            1    LIG   0.0000
  52 H            3.5971     5.4092     0.5949 H            1    LIG   0.0000
  53 H            1.4968    -1.8087     3.4867 H            1    LIG   0.0000
  54 H            2.2094    -0.5465     2.7345 H            1    LIG   0.0000
  55 H            3.6036    -2.4720     2.5971 H            1    LIG   0.0000
  56 H            2.4003    -3.2905     1.8563 H            1    LIG   0.0000
  57 H            3.1129    -2.0284     1.1041 H            1    LIG   0.0000
  58 H            0.1779    -4.0139     2.5101 H            1    LIG   0.0000
  59 H           -1.6612    -5.3247     1.7424 H            1    LIG   0.0000
  60 H           -3.2295    -4.3501     0.1986 H            1    LIG   0.0000
  61 H           -2.9094    -2.1000    -0.5268 H            1    LIG   0.0000
@<TRIPOS>BOND
   1        1        2 1
   2        2        3 1
   3        3        4 1
   4        4        5 2
   5        5        6 1
   6        6        7 am
   7        7        8 2
   8        7        9 1
   9        9       10 2
  10       10       11 1
  11       11       12 1
  12       12       13 ar
  13       13       14 ar
  14       14       15 ar
  15       15       16 1
  16       16       17 1
  17       16       18 1
  18       15       19 ar
  19       19       20 ar
  20       20       12 ar
  21       11       21 1
  22       21       22 2
  23       22        9 1
  24       22       23 1
  25        5       24 1
  26       24       25 1
  27       25       26 1
  28       24       27 1
  29       27       28 ar
  30       28       29 ar
  31       29       30 ar
  32       30       31 ar
  33       31       32 ar
  34       32       27 ar
  35       32        4 1
  36        1       33 1
  37        1       34 1
  38        1       35 1
  39        2       36 1
  40        2       37 1
  41        3       38 1
  42        3       39 1
  43        6       40 1
  44       13       41 1
  45       14       42 1
  46       16       43 1
  47       17       44 1
  48       17       45 1
  49       17       46 1
  50       18       47 1
  51       18       48 1
  52       18       49 1
  53       19       50 1
  54       20       51 1
  55       21       52 1
  56       25       53 1
  57       25       54 1
  58       26       55 1
  59       26       56 1
  60       26       57 1
  61       28       58 1
  62       29       59 1
  63       30       60 1
  64       31       61 1

@<TRIPOS>MOLECULE

  61   64
SMALL
USER_CHARGES
@<TRIPOS>ATOM
   1 C1          -0.5541     1.2331    -3.1262 C.3          1    LIG   0.0000
   2 C2          -0.9972     0.4078    -1.9292 C.3          1    LIG   0.0000
   3 C3           0.1603    -0.4537    -1.4513 C.3          1    LIG   0.0000
   4 N4          -0.0814    -0.8731    -0.0625 N.2          1    LIG   1.0000
   5 C5           0.2997    -0.2130     1.0000 C.2          1    LIG   0.0000
   6 N6           1.0000     1.0000     1.0000 N.am         1    LIG   0.0000
   7 C7           2.3700     1.0000     1.0000 C.2          1    LIG   0.0000
   8 O8           2.9700    -0.0392     1.0000 O.2          1    LIG   0.0000
   9 C9           3.0942     2.2543     1.0000 C.2          1    LIG   0.0000
  10 N10          4.3345     2.4373     1.3577 N.2          1    LIG   0.0000
  11 N11          4.6863     3.7042     1.2425 N.pl3        1    LIG   0.0000
  12 C12          5.9459     4.2366     1.5436 C.ar         1    LIG   0.0000
  13 C13          6.7251     3.6489     2.5354 C.ar         1    LIG   0.0000
  14 C14          7.9773     4.1731     2.8378 C.ar         1    LIG   0.0000
  15 C15          8.4333     5.2861     2.1382 C.ar         1    LIG   0.0000
  16 C16          9.8009     5.8643     2.4640 C.3          1    LIG   0.0000
  17 C17          9.7954     7.3604     2.1956 C.3          1    LIG   0.0000
  18 C18         10.1213     5.6134     3.9285 C.3          1    LIG   0.0000
  19 C19          7.6537     5.8744     1.1480 C.ar         1    LIG   0.0000
  20 C20          6.4016     5.3497     0.8450 C.ar         1    LIG   0.0000
  21 C21          3.6243     4.4267     0.7791 C.2          1    LIG   0.0000
  22 C22          2.6077     3.5305     0.6193 C.2          1    LIG   0.0000
  23 O23          1.3567     3.8046     0.1821 O.3          1    LIG  -1.0000
  24 N24         -0.0959    -0.9043     2.1039 N.pl3        1    LIG   0.0000
  25 C25          0.1395    -0.4914     3.4949 C.3          1    LIG   0.0000
  26 C26         -0.7079     0.7301     3.8113 C.3          1    LIG   0.0000
  27 C27         -0.7514    -2.0298     1.6972 C.ar         1    LIG   0.0000
  28 C28         -1.3710    -3.0952     2.3459 C.ar         1    LIG   0.0000
  29 C29         -1.9790    -4.1331     1.6466 C.ar         1    LIG   0.0000
  30 C30         -1.9628    -4.1013     0.2569 C.ar         1    LIG   0.0000
  31 C31         -1.3411    -3.0373    -0.3879 C.ar         1    LIG   0.0000
  32 C32         -0.7353    -2.0051     0.3249 C.ar         1    LIG   0.0000
  33 H           -1.3156     1.7999    -3.4406 H            1    LIG   0.0000
  34 H            0.2111     1.8200    -2.8615 H            1    LIG   0.0000
  35 H           -0.2662     0.6225    -3.8639 H            1    LIG   0.0000
  36 H           -1.2851     1.0184    -1.1914 H            1    LIG   0.0000
  37 H           -1.7624    -0.1791    -2.1939 H            1    LIG   0.0000
  38 H            0.2375    -1.2620    -2.0350 H            1    LIG   0.0000
  39 H            1.0091     0.0731    -1.4974 H            1    LIG   0.0000
  40 H            0.5000     1.8660     1.0000 H            1    LIG   0.0000
  41 H            6.3848     2.8497     3.0307 H            1    LIG   0.0000
  42 H            8.5427     3.7554     3.5489 H            1    LIG   0.0000
  43 H           10.4933     5.4255     1.8913 H            1    LIG   0.0000
  44 H           10.6951     7.7408     2.4099 H            1    LIG   0.0000
  45 H            9.5846     7.5255     1.2321 H            1    LIG   0.0000
  46 H            9.1030     7.7993     2.7682 H            1    LIG   0.0000
  47 H           11.0210     5.9938     4.1428 H            1    LIG   0.0000
  48 H            9.4289     6.0523     4.5011 H            1    LIG   0.0000
  49 H           10.1249     4.6292     4.1050 H            1    LIG   0.0000
  50 H            7.9933     6.6746     0.6537 H            1    LIG   0.0000
  51 H            5.8362     5.7676     0.1340 H            1    LIG   0.0000
  52 H            3.5971     5.4092     0.5949 H            1    LIG   0.0000
  53 H            1.1064    -0.2670     3.6169 H            1    LIG   0.0000
  54 H           -0.1096    -1.2386     4.1111 H            1    LIG   0.0000
  55 H           -0.5477     1.0110     4.7575 H            1    LIG   0.0000
  56 H           -0.4588     1.4773     3.1951 H            1    LIG   0.0000
  57 H           -1.6747     0.5057     3.6893 H            1    LIG   0.0000
  58 H           -1.3792    -3.1149     3.3457 H            1    LIG   0.0000
  59 H           -2.4191    -4.8871     2.1342 H            1    LIG   0.0000
  60 H           -2.3923    -4.8334    -0.2718 H            1    LIG   0.0000
  61 H           -1.3286    -3.0126    -1.3876 H            1    LIG   0.0000
@<TRIPOS>BOND
   1        1        2 1
   2        2        3 1
   3        3        4 1
   4        4        5 2
   5        5        6 1
   6        6        7 am
   7        7        8 2
   8        7        9 1
   9        9       10 2
  10       10       11 1
  11       11       12 1
  12       12       13 ar
  13       13       14 ar
  14       14       15 ar
  15       15       16 1
  16       16       17 1
  17       16       18 1
  18       15       19 ar
  19       19       20 ar
  20       20       12 ar
  21       11       21 1
  22       21       22 2
  23       22        9 1
  24       22       23 1
  25        5       24 1
  26       24       25 1
  27       25       26 1
  28       24       27 1
  29       27       28 ar
  30       28       29 ar
  31       29       30 ar
  32       30       31 ar
  33       31       32 ar
  34       32       27 ar
  35       32        4 1
  36        1       33 1
  37        1       34 1
  38        1       35 1
  39        2       36 1
  40        2       37 1
  41        3       38 1
  42        3       39 1
  43        6       40 1
  44       13       41 1
  45       14       42 1
  46       16       43 1
  47       17       44 1
  48       17       45 1
  49       17       46 1
  50       18       47 1
  51       18       48 1
  52       18       49 1
  53       19       50 1
  54       20       51 1
  55       21       52 1
  56       25       53 1
  57       25       54 1
  58       26       55 1
  59       26       56 1
  60       26       57 1
  61       28       58 1
  62       29       59 1
  63       30       60 1
  64       31       61 1

@<TRIPOS>MOLECULE

  61   64
SMALL
USER_CHARGES
@<TRIPOS>ATOM
   1 C1           1.7343    -0.5927    -3.3655 C.3          1    LIG   0.0000
   2 C2           1.4845    -1.0262    -1.9302 C.3          1    LIG   0.0000
   3 C3           0.1603    -0.4537    -1.4513 C.3          1    LIG   0.0000
   4 N4          -0.0814    -0.8731    -0.0625 N.2          1    LIG   1.0000
   5 C5           0.2997    -0.2130     1.0000 C.2          1    LIG   0.0000
   6 N6           1.0000     1.0000     1.0000 N.am         1    LIG   0.0000
   7 C7           2.3700     1.0000     1.0000 C.2          1    LIG   0.0000
   8 O8           2.9700    -0.0392     1.0000 O.2          1    LIG   0.0000
   9 C9           3.0942     2.2543     1.0000 C.2          1    LIG   0.0000
  10 N10          4.2678     2.4758     0.4771 N.2          1    LIG   0.0000
  11 N11          4.6449     3.7281     0.6550 N.pl3        1    LIG   0.0000
  12 C12          5.8491     4.2924     0.2168 C.ar         1    LIG   0.0000
  13 C13          6.7685     3.5086    -0.4736 C.ar         1    LIG   0.0000
  14 C14          7.9657     4.0643    -0.9118 C.ar         1    LIG   0.0000
  15 C15          8.2265     5.4057    -0.6496 C.ar         1    LIG   0.0000
  16 C16          9.5333     6.0193    -1.1256 C.3          1    LIG   0.0000
  17 C17         10.7006     5.2795    -0.4927 C.3          1    LIG   0.0000
  18 C18          9.6237     5.9084    -2.6388 C.3          1    LIG   0.0000
  19 C19          7.3082     6.1887     0.0417 C.ar         1    LIG   0.0000
  20 C20          6.1106     5.6331     0.4795 C.ar         1    LIG   0.0000
  21 C21          3.6717     4.3993     1.3384 C.2          1    LIG   0.0000
  22 C22          2.6829     3.4871     1.5668 C.2          1    LIG   0.0000
  23 O23          1.5194     3.7107     2.2208 O.3          1    LIG  -1.0000
  24 N24         -0.0959    -0.9043     2.1039 N.pl3        1    LIG   0.0000
  25 C25          0.1395    -0.4914     3.4949 C.3          1    LIG   0.0000
  26 C26         -1.0169     0.3734     3.9694 C.3          1    LIG   0.0000
  27 C27         -0.7514    -2.0298     1.6972 C.ar         1    LIG   0.0000
  28 C28         -1.3710    -3.0952     2.3459 C.ar         1    LIG   0.0000
  29 C29         -1.9790    -4.1331     1.6466 C.ar         1    LIG   0.0000
  30 C30         -1.9628    -4.1013     0.2569 C.ar         1    LIG   0.0000
  31 C31         -1.3411    -3.0373    -0.3879 C.ar         1    LIG   0.0000
  32 C32         -0.7353    -2.0051     0.3249 C.ar         1    LIG   0.0000
  33 H            2.6055    -0.9693    -3.6806 H            1    LIG   0.0000
  34 H            0.9951    -0.9293    -3.9489 H            1    LIG   0.0000
  35 H            1.7668     0.4058    -3.4113 H            1    LIG   0.0000
  36 H            1.4520    -2.0246    -1.8844 H            1    LIG   0.0000
  37 H            2.2236    -0.6895    -1.3469 H            1    LIG   0.0000
  38 H            0.1928     0.5447    -1.4971 H            1    LIG   0.0000
  39 H           -0.5788    -0.7903    -2.0346 H            1    LIG   0.0000
  40 H            0.5000     1.8660     1.0000 H            1    LIG   0.0000
  41 H            6.5684     2.5457    -0.6546 H            1    LIG   0.0000
  42 H            8.6306     3.5069    -1.4090 H            1    LIG   0.0000
  43 H            9.5656     6.9827    -0.8595 H            1    LIG   0.0000
  44 H           11.5603     5.6832    -0.8057 H            1    LIG   0.0000
  45 H           10.6411     5.3525     0.5029 H            1    LIG   0.0000
  46 H           10.6684     4.3161    -0.7588 H            1    LIG   0.0000
  47 H           10.4834     6.3121    -2.9519 H            1    LIG   0.0000
  48 H            9.5915     4.9450    -2.9049 H            1    LIG   0.0000
  49 H            8.8558     6.3951    -3.0552 H            1    LIG   0.0000
  50 H            7.5090     7.1512     0.2242 H            1    LIG   0.0000
  51 H            5.4458     6.1906     0.9768 H            1    LIG   0.0000
  52 H            3.6816     5.3604     1.6143 H            1    LIG   0.0000
  53 H            0.9904     0.0313     3.5480 H            1    LIG   0.0000
  54 H            0.2097    -1.3023     4.0759 H            1    LIG   0.0000
  55 H           -0.8567     0.6543     4.9157 H            1    LIG   0.0000
  56 H           -1.0870     1.1843     3.3884 H            1    LIG   0.0000
  57 H           -1.8677    -0.1493     3.9164 H            1    LIG   0.0000
  58 H           -1.3792    -3.1149     3.3457 H            1    LIG   0.0000
  59 H           -2.4191    -4.8871     2.1342 H            1    LIG   0.0000
  60 H           -2.3923    -4.8334    -0.2718 H            1    LIG   0.0000
  61 H           -1.3286    -3.0126    -1.3876 H            1    LIG   0.0000
@<TRIPOS>BOND
   1        1        2 1
   2        2        3 1
   3        3        4 1
   4        4        5 2
   5        5        6 1
   6        6        7 am
   7        7        8 2
   8        7        9 1
   9        9       10 2
  10       10       11 1
  11       11       12 1
  12       12       13 ar
  13       13       14 ar
  14       14       15 ar
  15       15       16 1
  16       16       17 1
  17       16       18 1
  18       15       19 ar
  19       19       20 ar
  20       20       12 ar
  21       11       21 1
  22       21       22 2
  23       22        9 1
  24       22       23 1
  25        5       24 1
  26       24       25 1
  27       25       26 1
  28       24       27 1
  29       27       28 ar
  30       28       29 ar
  31       29       30 ar
  32       30       31 ar
  33       31       32 ar
  34       32       27 ar
  35       32        4 1
  36        1       33 1
  37        1       34 1
  38        1       35 1
  39        2       36 1
  40        2       37 1
  41        3       38 1
  42        3       39 1
  43        6       40 1
  44       13       41 1
  45       14       42 1
  46       16       43 1
  47       17       44 1
  48       17       45 1
  49       17       46 1
  50       18       47 1
  51       18       48 1
  52       18       49 1
  53       19       50 1
  54       20       51 1
  55       21       52 1
  56       25       53 1
  57       25       54 1
  58       26       55 1
  59       26       56 1
  60       26       57 1
  61       28       58 1
  62       29       59 1
  63       30       60 1
  64       31       61 1

@<TRIPOS>MOLECULE

  61   64
SMALL
USER_CHARGES
@<TRIPOS>ATOM
   1 C1          -1.6049     1.3352    -2.9033 C.3          1    LIG   0.0000
   2 C2          -0.9027     0.3521    -1.9810 C.3          1    LIG   0.0000
   3 C3          -1.4658     0.4851    -0.5754 C.3          1    LIG   0.0000
   4 N4          -0.7863    -0.4661     0.3170 N.2          1    LIG   1.0000
   5 C5           0.2997    -0.2130     1.0000 C.2          1    LIG   0.0000
   6 N6           1.0000     1.0000     1.0000 N.am         1    LIG   0.0000
   7 C7           2.3700     1.0000     1.0000 C.2          1    LIG   0.0000
   8 O8           2.9700    -0.0392     1.0000 O.2          1    LIG   0.0000
   9 C9           3.0942     2.2543     1.0000 C.2          1    LIG   0.0000
  10 N10          4.2678     2.4758     0.4771 N.2          1    LIG   0.0000
  11 N11          4.6449     3.7281     0.6550 N.pl3        1    LIG   0.0000
  12 C12          5.8491     4.2924     0.2168 C.ar         1    LIG   0.0000
  13 C13          6.4632     3.8039    -0.9323 C.ar         1    LIG   0.0000
  14 C14          7.6588     4.3614    -1.3724 C.ar         1    LIG   0.0000
  15 C15          8.2262     5.4064    -0.6498 C.ar         1    LIG   0.0000
  16 C16          9.5332     6.0200    -1.1251 C.3          1    LIG   0.0000
  17 C17          9.9930     5.3152    -2.3909 C.3          1    LIG   0.0000
  18 C18          9.3233     7.4972    -1.4155 C.3          1    LIG   0.0000
  19 C19          7.6131     5.8935     0.4996 C.ar         1    LIG   0.0000
  20 C20          6.4170     5.3365     0.9395 C.ar         1    LIG   0.0000
  21 C21          3.6717     4.3993     1.3384 C.2          1    LIG   0.0000
  22 C22          2.6829     3.4871     1.5668 C.2          1    LIG   0.0000
  23 O23          1.5194     3.7107     2.2208 O.3          1    LIG  -1.0000
  24 N24          0.6355    -1.3265     1.7073 N.pl3        1    LIG   0.0000
  25 C25          1.7945    -1.4469     2.6033 C.3          1    LIG   0.0000
  26 C26          2.8151    -2.3901     1.9875 C.3          1    LIG   0.0000
  27 C27         -0.2883    -2.2972     1.4496 C.ar         1    LIG   0.0000
  28 C28         -0.4764    -3.6118     1.8695 C.ar         1    LIG   0.0000
  29 C29         -1.5459    -4.3831     1.4259 C.ar         1    LIG   0.0000
  30 C30         -2.4511    -3.8194     0.5340 C.ar         1    LIG   0.0000
  31 C31         -2.2591    -2.5072     0.1146 C.ar         1    LIG   0.0000
  32 C32         -1.1831    -1.7466     0.5663 C.ar         1    LIG   0.0000
  33 H           -1.2344     1.2477    -3.8280 H            1    LIG   0.0000
  34 H           -2.5851     1.1378    -2.9168 H            1    LIG   0.0000
  35 H           -1.4571     2.2671    -2.5718 H            1    LIG   0.0000
  36 H           -1.0505    -0.5798    -2.3124 H            1    LIG   0.0000
  37 H            0.0775     0.5495    -1.9674 H            1    LIG   0.0000
  38 H           -1.3180     1.4170    -0.2439 H            1    LIG   0.0000
  39 H           -2.4460     0.2877    -0.5889 H            1    LIG   0.0000
  40 H            0.5000     1.8660     1.0000 H            1    LIG   0.0000
  41 H            6.0447     3.0520    -1.4417 H            1    LIG   0.0000
  42 H            8.1052     4.0155    -2.1978 H            1    LIG   0.0000
  43 H           10.2285     5.9156    -0.4141 H            1    LIG   0.0000
  44 H           10.8528     5.7189    -2.7036 H            1    LIG   0.0000
  45 H           10.1311     4.3434    -2.1999 H            1    LIG   0.0000
  46 H            9.2977     5.4197    -3.1020 H            1    LIG   0.0000
  47 H           10.1831     7.9009    -1.7282 H            1    LIG   0.0000
  48 H            8.6279     7.6016    -2.1266 H            1    LIG   0.0000
  49 H            9.0207     7.9609    -0.5828 H            1    LIG   0.0000
  50 H            8.0324     6.6444     1.0099 H            1    LIG   0.0000
  51 H            5.9708     5.6823     1.7649 H            1    LIG   0.0000
  52 H            3.6816     5.3604     1.6143 H            1    LIG   0.0000
  53 H            1.4968    -1.8087     3.4867 H            1    LIG   0.0000
  54 H            2.2094    -0.5465     2.7345 H            1    LIG   0.0000
  55 H            3.6036    -2.4720     2.5971 H            1    LIG   0.0000
  56 H            2.4003    -3.2905     1.8563 H            1    LIG   0.0000
  57 H            3.1129    -2.0284     1.1041 H            1    LIG   0.0000
  58 H            0.1779    -4.0139     2.5101 H            1    LIG   0.0000
  59 H           -1.6612    -5.3247     1.7424 H            1    LIG   0.0000
  60 H           -3.2295    -4.3501     0.1986 H            1    LIG   0.0000
  61 H           -2.9094    -2.1000    -0.5268 H            1    LIG   0.0000
@<TRIPOS>BOND
   1        1        2 1
   2        2        3 1
   3        3        4 1
   4        4        5 2
   5        5        6 1
   6        6        7 am
   7        7        8 2
   8        7        9 1
   9        9       10 2
  10       10       11 1
  11       11       12 1
  12       12       13 ar
  13       13       14 ar
  14       14       15 ar
  15       15       16 1
  16       16       17 1
  17       16       18 1
  18       15       19 ar
  19       19       20 ar
  20       20       12 ar
  21       11       21 1
  22       21       22 2
  23       22        9 1
  24       22       23 1
  25        5       24 1
  26       24       25 1
  27       25       26 1
  28       24       27 1
  29       27       28 ar
  30       28       29 ar
  31       29       30 ar
  32       30       31 ar
  33       31       32 ar
  34       32       27 ar
  35       32        4 1
  36        1       33 1
  37        1       34 1
  38        1       35 1
  39        2       36 1
  40        2       37 1
  41        3       38 1
  42        3       39 1
  43        6       40 1
  44       13       41 1
  45       14       42 1
  46       16       43 1
  47       17       44 1
  48       17       45 1
  49       17       46 1
  50       18       47 1
  51       18       48 1
  52       18       49 1
  53       19       50 1
  54       20       51 1
  55       21       52 1
  56       25       53 1
  57       25       54 1
  58       26       55 1
  59       26       56 1
  60       26       57 1
  61       28       58 1
  62       29       59 1
  63       30       60 1
  64       31       61 1

@<TRIPOS>MOLECULE

  61   64
SMALL
USER_CHARGES
@<TRIPOS>ATOM
   1 C1          -1.1711     0.2358    -3.4294 C.3          1    LIG   0.0000
   2 C2          -0.9972     0.4078    -1.9292 C.3          1    LIG   0.0000
   3 C3           0.1603    -0.4537    -1.4513 C.3          1    LIG   0.0000
   4 N4          -0.0814    -0.8731    -0.0625 N.2          1    LIG   1.0000
   5 C5           0.2997    -0.2130     1.0000 C.2          1    LIG   0.0000
   6 N6           1.0000     1.0000     1.0000 N.am         1    LIG   0.0000
   7 C7           2.3700     1.0000     1.0000 C.2          1    LIG   0.0000
   8 O8           2.9700    -0.0392     1.0000 O.2          1    LIG   0.0000
   9 C9           3.0942     2.2543     1.0000 C.2          1    LIG   0.0000
  10 N10          4.2678     2.4758     0.4771 N.2          1    LIG   0.0000
  11 N11          4.6449     3.7281     0.6550 N.pl3        1    LIG   0.0000
  12 C12          5.8491     4.2924     0.2168 C.ar         1    LIG   0.0000
  13 C13          6.4632     3.8039    -0.9323 C.ar         1    LIG   0.0000
  14 C14          7.6588     4.3614    -1.3724 C.ar         1    LIG   0.0000
  15 C15          8.2262     5.4064    -0.6498 C.ar         1    LIG   0.0000
  16 C16          9.5332     6.0200    -1.1251 C.3          1    LIG   0.0000
  17 C17         10.3135     6.5399     0.0712 C.3          1    LIG   0.0000
  18 C18         10.3555     4.9648    -1.8467 C.3          1    LIG   0.0000
  19 C19          7.6131     5.8935     0.4996 C.ar         1    LIG   0.0000
  20 C20          6.4170     5.3365     0.9395 C.ar         1    LIG   0.0000
  21 C21          3.6717     4.3993     1.3384 C.2          1    LIG   0.0000
  22 C22          2.6829     3.4871     1.5668 C.2          1    LIG   0.0000
  23 O23          1.5194     3.7107     2.2208 O.3          1    LIG  -1.0000
  24 N24         -0.0959    -0.9043     2.1039 N.pl3        1    LIG   0.0000
  25 C25          0.1395    -0.4914     3.4949 C.3          1    LIG   0.0000
  26 C26          1.1493    -1.4284     4.1375 C.3          1    LIG   0.0000
  27 C27         -0.7514    -2.0298     1.6972 C.ar         1    LIG   0.0000
  28 C28         -1.3710    -3.0952     2.3459 C.ar         1    LIG   0.0000
  29 C29         -1.9790    -4.1331     1.6466 C.ar         1    LIG   0.0000
  30 C30         -1.9628    -4.1013     0.2569 C.ar         1    LIG   0.0000
  31 C31         -1.3411    -3.0373    -0.3879 C.ar         1    LIG   0.0000
  32 C32         -0.7353    -2.0051     0.3249 C.ar         1    LIG   0.0000
  33 H           -1.9326     0.8026    -3.7438 H            1    LIG   0.0000
  34 H           -0.3323     0.5157    -3.8964 H            1    LIG   0.0000
  35 H           -1.3627    -0.7239    -3.6349 H            1    LIG   0.0000
  36 H           -0.8056     1.3675    -1.7237 H            1    LIG   0.0000
  37 H           -1.8360     0.1279    -1.4622 H            1    LIG   0.0000
  38 H            0.2375    -1.2620    -2.0350 H            1    LIG   0.0000
  39 H            1.0091     0.0731    -1.4974 H            1    LIG   0.0000
  40 H            0.5000     1.8660     1.0000 H            1    LIG   0.0000
  41 H            6.0447     3.0520    -1.4417 H            1    LIG   0.0000
  42 H            8.1052     4.0155    -2.1978 H            1    LIG   0.0000
  43 H            9.3386     6.7760    -1.7502 H            1    LIG   0.0000
  44 H           11.1733     6.9436    -0.2415 H            1    LIG   0.0000
  45 H            9.7725     7.2341     0.5459 H            1    LIG   0.0000
  46 H           10.5080     5.7839     0.6963 H            1    LIG   0.0000
  47 H           11.2153     5.3685    -2.1594 H            1    LIG   0.0000
  48 H           10.5501     4.2089    -1.2217 H            1    LIG   0.0000
  49 H            9.8421     4.6228    -2.6338 H            1    LIG   0.0000
  50 H            8.0324     6.6444     1.0099 H            1    LIG   0.0000
  51 H            5.9708     5.6823     1.7649 H            1    LIG   0.0000
  52 H            3.6816     5.3604     1.6143 H            1    LIG   0.0000
  53 H           -0.7205    -0.5286     4.0038 H            1    LIG   0.0000
  54 H            0.4954     0.4430     3.5096 H            1    LIG   0.0000
  55 H            1.3095    -1.1475     5.0837 H            1    LIG   0.0000
  56 H            0.7934    -2.3628     4.1228 H            1    LIG   0.0000
  57 H            2.0094    -1.3912     3.6286 H            1    LIG   0.0000
  58 H           -1.3792    -3.1149     3.3457 H            1    LIG   0.0000
  59 H           -2.4191    -4.8871     2.1342 H            1    LIG   0.0000
  60 H           -2.3923    -4.8334    -0.2718 H            1    LIG   0.0000
  61 H           -1.3286    -3.0126    -1.3876 H            1    LIG   0.0000
@<TRIPOS>BOND
   1        1        2 1
   2        2        3 1
   3        3        4 1
   4        4        5 2
   5        5        6 1
   6        6        7 am
   7        7        8 2
   8        7        9 1
   9        9       10 2
  10       10       11 1
  11       11       12 1
  12       12       13 ar
  13       13       14 ar
  14       14       15 ar
  15       15       16 1
  16       16       17 1
  17       16       18 1
  18       15       19 ar
  19       19       20 ar
  20       20       12 ar
  21       11       21 1
  22       21       22 2
  23       22        9 1
  24       22       23 1
  25        5       24 1
  26       24       25 1
  27       25       26 1
  28       24       27 1
  29       27       28 ar
  30       28       29 ar
  31       29       30 ar
  32       30       31 ar
  33       31       32 ar
  34       32       27 ar
  35       32        4 1
  36        1       33 1
  37        1       34 1
  38        1       35 1
  39        2       36 1
  40        2       37 1
  41        3       38 1
  42        3       39 1
  43        6       40 1
  44       13       41 1
  45       14       42 1
  46       16       43 1
  47       17       44 1
  48       17       45 1
  49       17       46 1
  50       18       47 1
  51       18       48 1
  52       18       49 1
  53       19       50 1
  54       20       51 1
  55       21       52 1
  56       25       53 1
  57       25       54 1
  58       26       55 1
  59       26       56 1
  60       26       57 1
  61       28       58 1
  62       29       59 1
  63       30       60 1
  64       31       61 1

@<TRIPOS>MOLECULE

  61   64
SMALL
USER_CHARGES
@<TRIPOS>ATOM
   1 C1           0.4866    -1.5171    -3.6702 C.3          1    LIG   0.0000
   2 C2           0.8717    -1.5685    -2.2007 C.3          1    LIG   0.0000
   3 C3           0.1603    -0.4537    -1.4513 C.3          1    LIG   0.0000
   4 N4          -0.0814    -0.8731    -0.0625 N.2          1    LIG   1.0000
   5 C5           0.2997    -0.2130     1.0000 C.2          1    LIG   0.0000
   6 N6           1.0000     1.0000     1.0000 N.am         1    LIG   0.0000
   7 C7           2.3700     1.0000     1.0000 C.2          1    LIG   0.0000
   8 O8           2.9700    -0.0392     1.0000 O.2          1    LIG   0.0000
   9 C9           3.0942     2.2543     1.0000 C.2          1    LIG   0.0000
  10 N10          4.2678     2.4758     0.4771 N.2          1    LIG   0.0000
  11 N11          4.6449     3.7281     0.6550 N.pl3        1    LIG   0.0000
  12 C12          5.8491     4.2924     0.2168 C.ar         1    LIG   0.0000
  13 C13          6.3559     3.9538    -1.0341 C.ar         1    LIG   0.0000
  14 C14          7.5511     4.5120    -1.4745 C.ar         1    LIG   0.0000
  15 C15          8.2261     5.4066    -0.6498 C.ar         1    LIG   0.0000
  16 C16          9.5331     6.0202    -1.1249 C.3          1    LIG   0.0000
  17 C17          9.5174     6.1353    -2.6405 C.3          1    LIG   0.0000
  18 C18          9.6958     7.4023    -0.5135 C.3          1    LIG   0.0000
  19 C19          7.7202     5.7438     0.6011 C.ar         1    LIG   0.0000
  20 C20          6.5246     5.1860     1.0414 C.ar         1    LIG   0.0000
  21 C21          3.6717     4.3993     1.3384 C.2          1    LIG   0.0000
  22 C22          2.6829     3.4871     1.5668 C.2          1    LIG   0.0000
  23 O23          1.5194     3.7107     2.2208 O.3          1    LIG  -1.0000
  24 N24         -0.0959    -0.9043     2.1039 N.pl3        1    LIG   0.0000
  25 C25          0.1395    -0.4914     3.4949 C.3          1    LIG   0.0000
  26 C26          1.6274    -0.2697     3.7126 C.3          1    LIG   0.0000
  27 C27         -0.7514    -2.0298     1.6972 C.ar         1    LIG   0.0000
  28 C28         -1.3710    -3.0952     2.3459 C.ar         1    LIG   0.0000
  29 C29         -1.9790    -4.1331     1.6466 C.ar         1    LIG   0.0000
  30 C30         -1.9628    -4.1013     0.2569 C.ar         1    LIG   0.0000
  31 C31         -1.3411    -3.0373    -0.3879 C.ar         1    LIG   0.0000
  32 C32         -0.7353    -2.0051     0.3249 C.ar         1    LIG   0.0000
  33 H            0.9546    -2.2505    -4.1633 H            1    LIG   0.0000
  34 H           -0.5025    -1.6335    -3.7599 H            1    LIG   0.0000
  35 H            0.7545    -0.6335    -4.0543 H            1    LIG   0.0000
  36 H            0.6038    -2.4521    -1.8166 H            1    LIG   0.0000
  37 H            1.8608    -1.4521    -2.1110 H            1    LIG   0.0000
  38 H            0.7301     0.3681    -1.4569 H            1    LIG   0.0000
  39 H           -0.7130    -0.2569    -1.8969 H            1    LIG   0.0000
  40 H            0.5000     1.8660     1.0000 H            1    LIG   0.0000
  41 H            5.8607     3.3090    -1.6164 H            1    LIG   0.0000
  42 H            7.9207     4.2736    -2.3726 H            1    LIG   0.0000
  43 H           10.2963     5.4389    -0.8427 H            1    LIG   0.0000
  44 H           10.3773     6.5390    -2.9531 H            1    LIG   0.0000
  45 H            9.4104     5.2261    -3.0428 H            1    LIG   0.0000
  46 H            8.7543     6.7166    -2.9227 H            1    LIG   0.0000
  47 H           10.5557     7.8059    -0.8261 H            1    LIG   0.0000
  48 H            8.9327     7.9836    -0.7958 H            1    LIG   0.0000
  49 H            9.7062     7.3266     0.4836 H            1    LIG   0.0000
  50 H            8.2162     6.3873     1.1841 H            1    LIG   0.0000
  51 H            6.1552     5.4245     1.9396 H            1    LIG   0.0000
  52 H            3.6816     5.3604     1.6143 H            1    LIG   0.0000
  53 H           -0.1851    -1.2063     4.1143 H            1    LIG   0.0000
  54 H           -0.3545     0.3584     3.6786 H            1    LIG   0.0000
  55 H            1.7876     0.0111     4.6589 H            1    LIG   0.0000
  56 H            2.1215    -1.1196     3.5290 H            1    LIG   0.0000
  57 H            1.9521     0.4451     3.0933 H            1    LIG   0.0000
  58 H           -1.3792    -3.1149     3.3457 H            1    LIG   0.0000
  59 H           -2.4191    -4.8871     2.1342 H            1    LIG   0.0000
  60 H           -2.3923    -4.8334    -0.2718 H            1    LIG   0.0000
  61 H           -1.3286    -3.0126    -1.3876 H            1    LIG   0.0000
@<TRIPOS>BOND
   1        1        2 1
   2        2        3 1
   3        3        4 1
   4        4        5 2
   5        5        6 1
   6        6        7 am
   7        7        8 2
   8        7        9 1
   9        9       10 2
  10       10       11 1
  11       11       12 1
  12       12       13 ar
  13       13       14 ar
  14       14       15 ar
  15       15       16 1
  16       16       17 1
  17       16       18 1
  18       15       19 ar
  19       19       20 ar
  20       20       12 ar
  21       11       21 1
  22       21       22 2
  23       22        9 1
  24       22       23 1
  25        5       24 1
  26       24       25 1
  27       25       26 1
  28       24       27 1
  29       27       28 ar
  30       28       29 ar
  31       29       30 ar
  32       30       31 ar
  33       31       32 ar
  34       32       27 ar
  35       32        4 1
  36        1       33 1
  37        1       34 1
  38        1       35 1
  39        2       36 1
  40        2       37 1
  41        3       38 1
  42        3       39 1
  43        6       40 1
  44       13       41 1
  45       14       42 1
  46       16       43 1
  47       17       44 1
  48       17       45 1
  49       17       46 1
  50       18       47 1
  51       18       48 1
  52       18       49 1
  53       19       50 1
  54       20       51 1
  55       21       52 1
  56       25       53 1
  57       25       54 1
  58       26       55 1
  59       26       56 1
  60       26       57 1
  61       28       58 1
  62       29       59 1
  63       30       60 1
  64       31       61 1

@<TRIPOS>MOLECULE

  61   64
SMALL
USER_CHARGES
@<TRIPOS>ATOM
   1 C1          -0.9890     1.6933     4.6911 C.3          1    LIG   0.0000
   2 C2          -0.9010     0.3522     3.9810 C.3          1    LIG   0.0000
   3 C3          -1.4654     0.4849     2.5759 C.3          1    LIG   0.0000
   4 N4          -0.7863    -0.4661     1.6830 N.2          1    LIG   1.0000
   5 C5           0.2997    -0.2130     1.0000 C.2          1    LIG   0.0000
   6 N6           1.0000     1.0000     1.0000 N.am         1    LIG   0.0000
   7 C7           2.3700     1.0000     1.0000 C.2          1    LIG   0.0000
   8 O8           2.9700    -0.0392     1.0000 O.2          1    LIG   0.0000
   9 C9           3.0942     2.2543     1.0000 C.2          1    LIG   0.0000
  10 N10          4.2678     2.4758     0.4771 N.2          1    LIG   0.0000
  11 N11          4.6449     3.7281     0.6550 N.pl3        1    LIG   0.0000
  12 C12          5.8491     4.2924     0.2168 C.ar         1    LIG   0.0000
  13 C13          7.0289     3.5605     0.3088 C.ar         1    LIG   0.0000
  14 C14          8.2275     4.1158    -0.1257 C.ar         1    LIG   0.0000
  15 C15          8.2271     5.4052    -0.6489 C.ar         1    LIG   0.0000
  16 C16          9.5338     6.0184    -1.1255 C.3          1    LIG   0.0000
  17 C17          9.4812     7.5267    -0.9451 C.3          1    LIG   0.0000
  18 C18         10.6860     5.4508    -0.3126 C.3          1    LIG   0.0000
  19 C19          7.0480     6.1373    -0.7394 C.ar         1    LIG   0.0000
  20 C20          5.8491     5.5817    -0.3054 C.ar         1    LIG   0.0000
  21 C21          3.6717     4.3993     1.3384 C.2          1    LIG   0.0000
  22 C22          2.6829     3.4871     1.5668 C.2          1    LIG   0.0000
  23 O23          1.5194     3.7107     2.2208 O.3          1    LIG  -1.0000
  24 N24          0.6321    -1.3246     0.2881 N.pl3        1    LIG   0.0000
  25 C25          1.7939    -1.4466    -0.6041 C.3          1    LIG   0.0000
  26 C26          2.8190    -2.3773     0.0232 C.3          1    LIG   0.0000
  27 C27         -0.2862    -2.2984     0.5533 C.ar         1    LIG   0.0000
  28 C28         -0.4700    -3.6155     0.1393 C.ar         1    LIG   0.0000
  29 C29         -1.5310    -4.3917     0.5946 C.ar         1    LIG   0.0000
  30 C30         -2.4341    -3.8292     1.4893 C.ar         1    LIG   0.0000
  31 C31         -2.2493    -2.5129     1.8989 C.ar         1    LIG   0.0000
  32 C32         -1.1828    -1.7468     1.4342 C.ar         1    LIG   0.0000
  33 H           -0.6177     1.6060     5.6155 H            1    LIG   0.0000
  34 H           -0.4620     2.3746     4.1832 H            1    LIG   0.0000
  35 H           -1.9452     1.9815     4.7418 H            1    LIG   0.0000
  36 H            0.0552     0.0640     3.9303 H            1    LIG   0.0000
  37 H           -1.4280    -0.3291     4.4889 H            1    LIG   0.0000
  38 H           -2.4455     0.2871     2.5903 H            1    LIG   0.0000
  39 H           -1.3183     1.4168     2.2442 H            1    LIG   0.0000
  40 H            0.5000     1.8660     1.0000 H            1    LIG   0.0000
  41 H            7.0149     2.6350     0.6875 H            1    LIG   0.0000
  42 H            9.0790     3.5952    -0.0630 H            1    LIG   0.0000
  43 H            9.6701     5.8028    -2.0924 H            1    LIG   0.0000
  44 H           10.3408     7.9301    -1.2586 H            1    LIG   0.0000
  45 H            8.7232     7.9001    -1.4799 H            1    LIG   0.0000
  46 H            9.3450     7.7422     0.0218 H            1    LIG   0.0000
  47 H           11.5456     5.8542    -0.6262 H            1    LIG   0.0000
  48 H           10.5498     5.6663     0.6543 H            1    LIG   0.0000
  49 H           10.7206     4.4585    -0.4313 H            1    LIG   0.0000
  50 H            7.0623     7.0634    -1.1166 H            1    LIG   0.0000
  51 H            4.9977     6.1025    -0.3680 H            1    LIG   0.0000
  52 H            3.6816     5.3604     1.6143 H            1    LIG   0.0000
  53 H            2.2034    -0.5450    -0.7433 H            1    LIG   0.0000
  54 H            1.5004    -1.8189    -1.4846 H            1    LIG   0.0000
  55 H            3.6094    -2.4603    -0.5838 H            1    LIG   0.0000
  56 H            3.1125    -2.0049     0.9037 H            1    LIG   0.0000
  57 H            2.4095    -3.2789     0.1624 H            1    LIG   0.0000
  58 H            0.1812    -4.0158    -0.5055 H            1    LIG   0.0000
  59 H           -1.6418    -5.3359     0.2843 H            1    LIG   0.0000
  60 H           -3.2060    -4.3636     1.8337 H            1    LIG   0.0000
  61 H           -2.8979    -2.1066     2.5426 H            1    LIG   0.0000
@<TRIPOS>BOND
   1        1        2 1
   2        2        3 1
   3        3        4 1
   4        4        5 2
   5        5        6 1
   6        6        7 am
   7        7        8 2
   8        7        9 1
   9        9       10 2
  10       10       11 1
  11       11       12 1
  12       12       13 ar
  13       13       14 ar
  14       14       15 ar
  15       15       16 1
  16       16       17 1
  17       16       18 1
  18       15       19 ar
  19       19       20 ar
  20       20       12 ar
  21       11       21 1
  22       21       22 2
  23       22        9 1
  24       22       23 1
  25        5       24 1
  26       24       25 1
  27       25       26 1
  28       24       27 1
  29       27       28 ar
  30       28       29 ar
  31       29       30 ar
  32       30       31 ar
  33       31       32 ar
  34       32       27 ar
  35       32        4 1
  36        1       33 1
  37        1       34 1
  38        1       35 1
  39        2       36 1
  40        2       37 1
  41        3       38 1
  42        3       39 1
  43        6       40 1
  44       13       41 1
  45       14       42 1
  46       16       43 1
  47       17       44 1
  48       17       45 1
  49       17       46 1
  50       18       47 1
  51       18       48 1
  52       18       49 1
  53       19       50 1
  54       20       51 1
  55       21       52 1
  56       25       53 1
  57       25       54 1
  58       26       55 1
  59       26       56 1
  60       26       57 1
  61       28       58 1
  62       29       59 1
  63       30       60 1
  64       31       61 1

