@<TRIPOS>MOLECULE
*****
 61 64 0 0 0
SMALL
USER_CHARGES

@<TRIPOS>ATOM
      1 C1          1.9775   -0.2296   -3.1272 C.3     1  LIG1        0.0000
      2 C2          1.4845   -1.0262   -1.9302 C.3     1  LIG1        0.0000
      3 C3          0.1603   -0.4537   -1.4513 C.3     1  LIG1        0.0000
      4 N4         -0.0814   -0.8731   -0.0625 N.2     1  LIG1        1.0000
      5 C5          0.2997   -0.2130    1.0000 C.2     1  LIG1        0.0000
      6 N6          1.0000    1.0000    1.0000 N.am    1  LIG1        0.0000
      7 C7          2.3700    1.0000    1.0000 C.2     1  LIG1        0.0000
      8 O8          2.9700   -0.0392    1.0000 O.2     1  LIG1        0.0000
      9 C9          3.0942    2.2543    1.0000 C.2     1  LIG1        0.0000
     10 N10         4.3891    2.4057    1.0000 N.2     1  LIG1        0.0000
     11 N11         4.7240    3.6825    1.0042 N.pl3   1  LIG1        0.0000
     12 C12         6.0297    4.1882    1.0051 C.3     1  LIG1        0.0000
     13 C13         7.0521    3.4602    1.6058 C.3     1  LIG1        0.0000
     14 C14         8.3508    3.9574    1.6087 C.3     1  LIG1        0.0000
     15 C15         8.6081    5.1852    1.0066 C.3     1  LIG1        0.0000
     16 C16        10.0254    5.7347    1.0065 C.3     1  LIG1        0.0000
     17 C17         9.9798    7.2540    1.0118 C.3     1  LIG1        0.0000
     18 C18        10.7586    5.2455    2.2449 C.3     1  LIG1        0.0000
     19 C19         7.5858    5.9135    0.4076 C.3     1  LIG1        0.0000
     20 C20         6.2870    5.4159    0.4041 C.3     1  LIG1        0.0000
     21 C21         3.5916    4.4456    1.0069 C.2     1  LIG1        0.0000
     22 C22         2.5503    3.5637    1.0046 C.2     1  LIG1        0.0000
     23 O23         1.2335    3.8758    1.0112 O.2     1  LIG1       -1.0000
     24 N24        -0.0959   -0.9043    2.1039 N.pl3   1  LIG1        0.0000
     25 C25         0.1395   -0.4914    3.4949 C.3     1  LIG1        0.0000
     26 C26         1.6274   -0.2697    3.7126 C.3     1  LIG1        0.0000
     27 C27        -0.7514   -2.0298    1.6972 C.3     1  LIG1        0.0000
     28 C28        -1.3710   -3.0952    2.3459 C.3     1  LIG1        0.0000
     29 C29        -1.9790   -4.1331    1.6466 C.3     1  LIG1        0.0000
     30 C30        -1.9628   -4.1013    0.2569 C.3     1  LIG1        0.0000
     31 C31        -1.3411   -3.0373   -0.3879 C.3     1  LIG1        0.0000
     32 C32        -0.7353   -2.0051    0.3249 C.3     1  LIG1        0.0000
     33 H           2.8486   -0.6062   -3.4423 H       1  LIG1        0.0000
     34 H           1.3042   -0.2849   -3.8646 H       1  LIG1        0.0000
     35 H           2.1039    0.7263   -2.8623 H       1  LIG1        0.0000
     36 H           1.3580   -1.9821   -2.1951 H       1  LIG1        0.0000
     37 H           2.1577   -0.9709   -1.1929 H       1  LIG1        0.0000
     38 H           0.1928    0.5447   -1.4971 H       1  LIG1        0.0000
     39 H          -0.5788   -0.7903   -2.0346 H       1  LIG1        0.0000
     40 H           0.5000    1.8660    1.0000 H       1  LIG1        0.0000
     41 H           6.8530    2.5794    2.0354 H       1  LIG1        0.0000
     42 H           9.0905    3.4392    2.0381 H       1  LIG1        0.0000
     43 H          10.5055    5.4185    0.1883 H       1  LIG1        0.0000
     44 H          10.9122    7.6155    1.0117 H       1  LIG1        0.0000
     45 H           9.4974    7.5758    0.1971 H       1  LIG1        0.0000
     46 H           9.4997    7.5702    1.8301 H       1  LIG1        0.0000
     47 H          11.6910    5.6070    2.2448 H       1  LIG1        0.0000
     48 H          10.2785    5.5617    3.0632 H       1  LIG1        0.0000
     49 H          10.7886    4.2460    2.2414 H       1  LIG1        0.0000
     50 H           7.7846    6.7951   -0.0206 H       1  LIG1        0.0000
     51 H           5.5474    5.9344   -0.0252 H       1  LIG1        0.0000
     52 H           3.5368    5.4441    1.0099 H       1  LIG1        0.0000
     53 H          -0.1851   -1.2063    4.1143 H       1  LIG1        0.0000
     54 H          -0.3545    0.3584    3.6786 H       1  LIG1        0.0000
     55 H           1.7876    0.0111    4.6589 H       1  LIG1        0.0000
     56 H           2.1215   -1.1196    3.5290 H       1  LIG1        0.0000
     57 H           1.9521    0.4451    3.0933 H       1  LIG1        0.0000
     58 H          -1.3792   -3.1149    3.3457 H       1  LIG1        0.0000
     59 H          -2.4191   -4.8871    2.1342 H       1  LIG1        0.0000
     60 H          -2.3923   -4.8334   -0.2718 H       1  LIG1        0.0000
     61 H          -1.3286   -3.0126   -1.3876 H       1  LIG1        0.0000
@<TRIPOS>UNITY_ATOM_ATTR
23 1
charge -1
@<TRIPOS>BOND
     1     1     2    1
     2     2     3    1
     3     3     4    1
     4     4     5    2
     5     5     6    1
     6     6     7   am
     7     7     8    2
     8     7     9    1
     9     9    10    2
    10    10    11    1
    11    11    12    1
    12    12    13   ar
    13    13    14   ar
    14    14    15   ar
    15    15    16    1
    16    16    17    1
    17    16    18    1
    18    15    19   ar
    19    19    20   ar
    20    20    12   ar
    21    11    21    1
    22    21    22    2
    23    22     9    1
    24    22    23    1
    25     5    24    1
    26    24    25    1
    27    25    26    1
    28    24    27    1
    29    27    28   ar
    30    28    29   ar
    31    29    30   ar
    32    30    31   ar
    33    31    32   ar
    34    32    27   ar
    35    32     4    1
    36     1    33    1
    37     1    34    1
    38     1    35    1
    39     2    36    1
    40     2    37    1
    41     3    38    1
    42     3    39    1
    43     6    40    1
    44    13    41    1
    45    14    42    1
    46    16    43    1
    47    17    44    1
    48    17    45    1
    49    17    46    1
    50    18    47    1
    51    18    48    1
    52    18    49    1
    53    19    50    1
    54    20    51    1
    55    21    52    1
    56    25    53    1
    57    25    54    1
    58    26    55    1
    59    26    56    1
    60    26    57    1
    61    28    58    1
    62    29    59    1
    63    30    60    1
    64    31    61    1
