@<TRIPOS>MOLECULE
*****
 61 64 0 0 0
SMALL
USER_CHARGES

@<TRIPOS>ATOM
      1 C1         -0.7473    0.8412   -3.3645 C.3     1  LIG1        0.0000
      2 C2         -0.9972    0.4078   -1.9292 C.3     1  LIG1        0.0000
      3 C3          0.1603   -0.4537   -1.4513 C.3     1  LIG1        0.0000
      4 N4         -0.0814   -0.8731   -0.0625 N.2     1  LIG1        1.0000
      5 C5          0.2997   -0.2130    1.0000 C.2     1  LIG1        0.0000
      6 N6          1.0000    1.0000    1.0000 N.am    1  LIG1        0.0000
      7 C7          2.3700    1.0000    1.0000 C.2     1  LIG1        0.0000
      8 O8          2.9700   -0.0392    1.0000 O.2     1  LIG1        0.0000
      9 C9          3.0942    2.2543    1.0000 C.2     1  LIG1        0.0000
     10 N10         4.3891    2.4057    1.0000 N.2     1  LIG1        0.0000
     11 N11         4.7240    3.6825    1.0042 N.pl3   1  LIG1        0.0000
     12 C12         6.0297    4.1882    1.0051 C.3     1  LIG1        0.0000
     13 C13         7.0513    3.4644    0.3980 C.3     1  LIG1        0.0000
     14 C14         8.3497    3.9625    0.3952 C.3     1  LIG1        0.0000
     15 C15         8.6078    5.1860    1.0054 C.3     1  LIG1        0.0000
     16 C16        10.0248    5.7362    1.0063 C.3     1  LIG1        0.0000
     17 C17        10.7555    5.2561   -0.2371 C.3     1  LIG1        0.0000
     18 C18         9.9786    7.2554    1.0119 C.3     1  LIG1        0.0000
     19 C19         7.5868    5.9087    1.6136 C.3     1  LIG1        0.0000
     20 C20         6.2881    5.4109    1.6158 C.3     1  LIG1        0.0000
     21 C21         3.5916    4.4456    1.0069 C.2     1  LIG1        0.0000
     22 C22         2.5503    3.5637    1.0046 C.2     1  LIG1        0.0000
     23 O23         1.2335    3.8758    1.0112 O.2     1  LIG1       -1.0000
     24 N24        -0.0959   -0.9043    2.1039 N.pl3   1  LIG1        0.0000
     25 C25         0.1395   -0.4914    3.4949 C.3     1  LIG1        0.0000
     26 C26        -1.0169    0.3734    3.9694 C.3     1  LIG1        0.0000
     27 C27        -0.7514   -2.0298    1.6972 C.3     1  LIG1        0.0000
     28 C28        -1.3710   -3.0952    2.3459 C.3     1  LIG1        0.0000
     29 C29        -1.9790   -4.1331    1.6466 C.3     1  LIG1        0.0000
     30 C30        -1.9628   -4.1013    0.2569 C.3     1  LIG1        0.0000
     31 C31        -1.3411   -3.0373   -0.3879 C.3     1  LIG1        0.0000
     32 C32        -0.7353   -2.0051    0.3249 C.3     1  LIG1        0.0000
     33 H          -1.5089    1.4080   -3.6789 H       1  LIG1        0.0000
     34 H           0.1014    1.3680   -3.4106 H       1  LIG1        0.0000
     35 H          -0.6702    0.0329   -3.9482 H       1  LIG1        0.0000
     36 H          -1.0744    1.2161   -1.3455 H       1  LIG1        0.0000
     37 H          -1.8460   -0.1190   -1.8830 H       1  LIG1        0.0000
     38 H           0.2375   -1.2620   -2.0350 H       1  LIG1        0.0000
     39 H           1.0091    0.0731   -1.4974 H       1  LIG1        0.0000
     40 H           0.5000    1.8660    1.0000 H       1  LIG1        0.0000
     41 H           6.8518    2.5860   -0.0364 H       1  LIG1        0.0000
     42 H           9.0885    3.4478   -0.0398 H       1  LIG1        0.0000
     43 H          10.5068    5.4143    1.8212 H       1  LIG1        0.0000
     44 H          11.6877    5.6180   -0.2366 H       1  LIG1        0.0000
     45 H          10.7859    4.2566   -0.2408 H       1  LIG1        0.0000
     46 H          10.2735    5.5779   -1.0521 H       1  LIG1        0.0000
     47 H          10.9108    7.6173    1.0125 H       1  LIG1        0.0000
     48 H           9.4966    7.5773    0.1970 H       1  LIG1        0.0000
     49 H           9.4979    7.5713    1.8300 H       1  LIG1        0.0000
     50 H           7.7866    6.7863    2.0494 H       1  LIG1        0.0000
     51 H           5.5494    5.9256    2.0510 H       1  LIG1        0.0000
     52 H           3.5368    5.4441    1.0099 H       1  LIG1        0.0000
     53 H           0.9904    0.0313    3.5480 H       1  LIG1        0.0000
     54 H           0.2097   -1.3023    4.0759 H       1  LIG1        0.0000
     55 H          -0.8567    0.6543    4.9157 H       1  LIG1        0.0000
     56 H          -1.0870    1.1843    3.3884 H       1  LIG1        0.0000
     57 H          -1.8677   -0.1493    3.9164 H       1  LIG1        0.0000
     58 H          -1.3792   -3.1149    3.3457 H       1  LIG1        0.0000
     59 H          -2.4191   -4.8871    2.1342 H       1  LIG1        0.0000
     60 H          -2.3923   -4.8334   -0.2718 H       1  LIG1        0.0000
     61 H          -1.3286   -3.0126   -1.3876 H       1  LIG1        0.0000
@<TRIPOS>UNITY_ATOM_ATTR
23 1
charge -1
@<TRIPOS>BOND
     1     1     2    1
     2     2     3    1
     3     3     4    1
     4     4     5    2
     5     5     6    1
     6     6     7   am
     7     7     8    2
     8     7     9    1
     9     9    10    2
    10    10    11    1
    11    11    12    1
    12    12    13   ar
    13    13    14   ar
    14    14    15   ar
    15    15    16    1
    16    16    17    1
    17    16    18    1
    18    15    19   ar
    19    19    20   ar
    20    20    12   ar
    21    11    21    1
    22    21    22    2
    23    22     9    1
    24    22    23    1
    25     5    24    1
    26    24    25    1
    27    25    26    1
    28    24    27    1
    29    27    28   ar
    30    28    29   ar
    31    29    30   ar
    32    30    31   ar
    33    31    32   ar
    34    32    27   ar
    35    32     4    1
    36     1    33    1
    37     1    34    1
    38     1    35    1
    39     2    36    1
    40     2    37    1
    41     3    38    1
    42     3    39    1
    43     6    40    1
    44    13    41    1
    45    14    42    1
    46    16    43    1
    47    17    44    1
    48    17    45    1
    49    17    46    1
    50    18    47    1
    51    18    48    1
    52    18    49    1
    53    19    50    1
    54    20    51    1
    55    21    52    1
    56    25    53    1
    57    25    54    1
    58    26    55    1
    59    26    56    1
    60    26    57    1
    61    28    58    1
    62    29    59    1
    63    30    60    1
    64    31    61    1
