@<TRIPOS>MOLECULE
*****
 61 64 0 0 0
SMALL
USER_CHARGES

@<TRIPOS>ATOM
      1 C1         -1.6049    1.3352   -2.9033 C.3     1  LIG1        0.0000
      2 C2         -0.9027    0.3521   -1.9810 C.3     1  LIG1        0.0000
      3 C3         -1.4658    0.4851   -0.5754 C.3     1  LIG1        0.0000
      4 N4         -0.7863   -0.4661    0.3170 N.2     1  LIG1        1.0000
      5 C5          0.2997   -0.2130    1.0000 C.2     1  LIG1        0.0000
      6 N6          1.0000    1.0000    1.0000 N.am    1  LIG1        0.0000
      7 C7          2.3700    1.0000    1.0000 C.2     1  LIG1        0.0000
      8 O8          2.9700   -0.0392    1.0000 O.2     1  LIG1        0.0000
      9 C9          3.0942    2.2543    1.0000 C.2     1  LIG1        0.0000
     10 N10         4.2678    2.4758    0.4771 N.2     1  LIG1        0.0000
     11 N11         4.6449    3.7281    0.6550 N.pl3   1  LIG1        0.0000
     12 C12         5.8491    4.2924    0.2168 C.3     1  LIG1        0.0000
     13 C13         6.4632    3.8039   -0.9323 C.3     1  LIG1        0.0000
     14 C14         7.6588    4.3614   -1.3724 C.3     1  LIG1        0.0000
     15 C15         8.2262    5.4064   -0.6498 C.3     1  LIG1        0.0000
     16 C16         9.5332    6.0200   -1.1251 C.3     1  LIG1        0.0000
     17 C17         9.9930    5.3152   -2.3909 C.3     1  LIG1        0.0000
     18 C18         9.3233    7.4972   -1.4155 C.3     1  LIG1        0.0000
     19 C19         7.6131    5.8935    0.4996 C.3     1  LIG1        0.0000
     20 C20         6.4170    5.3365    0.9395 C.3     1  LIG1        0.0000
     21 C21         3.6717    4.3993    1.3384 C.2     1  LIG1        0.0000
     22 C22         2.6829    3.4871    1.5668 C.2     1  LIG1        0.0000
     23 O23         1.5194    3.7107    2.2208 O.2     1  LIG1       -1.0000
     24 N24         0.6355   -1.3265    1.7073 N.pl3   1  LIG1        0.0000
     25 C25         1.7945   -1.4469    2.6033 C.3     1  LIG1        0.0000
     26 C26         2.8151   -2.3901    1.9875 C.3     1  LIG1        0.0000
     27 C27        -0.2883   -2.2972    1.4496 C.3     1  LIG1        0.0000
     28 C28        -0.4764   -3.6118    1.8695 C.3     1  LIG1        0.0000
     29 C29        -1.5459   -4.3831    1.4259 C.3     1  LIG1        0.0000
     30 C30        -2.4511   -3.8194    0.5340 C.3     1  LIG1        0.0000
     31 C31        -2.2591   -2.5072    0.1146 C.3     1  LIG1        0.0000
     32 C32        -1.1831   -1.7466    0.5663 C.3     1  LIG1        0.0000
     33 H          -1.2344    1.2477   -3.8280 H       1  LIG1        0.0000
     34 H          -2.5851    1.1378   -2.9168 H       1  LIG1        0.0000
     35 H          -1.4571    2.2671   -2.5718 H       1  LIG1        0.0000
     36 H          -1.0505   -0.5798   -2.3124 H       1  LIG1        0.0000
     37 H           0.0775    0.5495   -1.9674 H       1  LIG1        0.0000
     38 H          -1.3180    1.4170   -0.2439 H       1  LIG1        0.0000
     39 H          -2.4460    0.2877   -0.5889 H       1  LIG1        0.0000
     40 H           0.5000    1.8660    1.0000 H       1  LIG1        0.0000
     41 H           6.0447    3.0520   -1.4417 H       1  LIG1        0.0000
     42 H           8.1052    4.0155   -2.1978 H       1  LIG1        0.0000
     43 H          10.2285    5.9156   -0.4141 H       1  LIG1        0.0000
     44 H          10.8528    5.7189   -2.7036 H       1  LIG1        0.0000
     45 H          10.1311    4.3434   -2.1999 H       1  LIG1        0.0000
     46 H           9.2977    5.4197   -3.1020 H       1  LIG1        0.0000
     47 H          10.1831    7.9009   -1.7282 H       1  LIG1        0.0000
     48 H           8.6279    7.6016   -2.1266 H       1  LIG1        0.0000
     49 H           9.0207    7.9609   -0.5828 H       1  LIG1        0.0000
     50 H           8.0324    6.6444    1.0099 H       1  LIG1        0.0000
     51 H           5.9708    5.6823    1.7649 H       1  LIG1        0.0000
     52 H           3.6816    5.3604    1.6143 H       1  LIG1        0.0000
     53 H           1.4968   -1.8087    3.4867 H       1  LIG1        0.0000
     54 H           2.2094   -0.5465    2.7345 H       1  LIG1        0.0000
     55 H           3.6036   -2.4720    2.5971 H       1  LIG1        0.0000
     56 H           2.4003   -3.2905    1.8563 H       1  LIG1        0.0000
     57 H           3.1129   -2.0284    1.1041 H       1  LIG1        0.0000
     58 H           0.1779   -4.0139    2.5101 H       1  LIG1        0.0000
     59 H          -1.6612   -5.3247    1.7424 H       1  LIG1        0.0000
     60 H          -3.2295   -4.3501    0.1986 H       1  LIG1        0.0000
     61 H          -2.9094   -2.1000   -0.5268 H       1  LIG1        0.0000
@<TRIPOS>UNITY_ATOM_ATTR
23 1
charge -1
@<TRIPOS>BOND
     1     1     2    1
     2     2     3    1
     3     3     4    1
     4     4     5    2
     5     5     6    1
     6     6     7   am
     7     7     8    2
     8     7     9    1
     9     9    10    2
    10    10    11    1
    11    11    12    1
    12    12    13   ar
    13    13    14   ar
    14    14    15   ar
    15    15    16    1
    16    16    17    1
    17    16    18    1
    18    15    19   ar
    19    19    20   ar
    20    20    12   ar
    21    11    21    1
    22    21    22    2
    23    22     9    1
    24    22    23    1
    25     5    24    1
    26    24    25    1
    27    25    26    1
    28    24    27    1
    29    27    28   ar
    30    28    29   ar
    31    29    30   ar
    32    30    31   ar
    33    31    32   ar
    34    32    27   ar
    35    32     4    1
    36     1    33    1
    37     1    34    1
    38     1    35    1
    39     2    36    1
    40     2    37    1
    41     3    38    1
    42     3    39    1
    43     6    40    1
    44    13    41    1
    45    14    42    1
    46    16    43    1
    47    17    44    1
    48    17    45    1
    49    17    46    1
    50    18    47    1
    51    18    48    1
    52    18    49    1
    53    19    50    1
    54    20    51    1
    55    21    52    1
    56    25    53    1
    57    25    54    1
    58    26    55    1
    59    26    56    1
    60    26    57    1
    61    28    58    1
    62    29    59    1
    63    30    60    1
    64    31    61    1
