@<TRIPOS>MOLECULE
*****
 61 64 0 0 0
SMALL
USER_CHARGES

@<TRIPOS>ATOM
      1 C1         -3.1995    2.2559    2.7089 C.3     1  LIG1        0.0000
      2 C2         -2.4977    1.2729    1.7861 C.3     1  LIG1        0.0000
      3 C3         -1.4654    0.4849    2.5759 C.3     1  LIG1        0.0000
      4 N4         -0.7863   -0.4661    1.6830 N.2     1  LIG1        1.0000
      5 C5          0.2997   -0.2130    1.0000 C.2     1  LIG1        0.0000
      6 N6          1.0000    1.0000    1.0000 N.am    1  LIG1        0.0000
      7 C7          2.3700    1.0000    1.0000 C.2     1  LIG1        0.0000
      8 O8          2.9700   -0.0392    1.0000 O.2     1  LIG1        0.0000
      9 C9          3.0942    2.2543    1.0000 C.2     1  LIG1        0.0000
     10 N10         4.3891    2.4057    1.0000 N.2     1  LIG1        0.0000
     11 N11         4.7240    3.6825    1.0042 N.pl3   1  LIG1        0.0000
     12 C12         6.0297    4.1882    1.0051 C.3     1  LIG1        0.0000
     13 C13         7.1101    3.3114    1.0013 C.3     1  LIG1        0.0000
     14 C14         8.4090    3.8084    1.0013 C.3     1  LIG1        0.0000
     15 C15         8.6080    5.1855    1.0059 C.3     1  LIG1        0.0000
     16 C16        10.0251    5.7354    1.0062 C.3     1  LIG1        0.0000
     17 C17        10.7581    5.2463    2.2447 C.3     1  LIG1        0.0000
     18 C18        10.7553    5.2551   -0.2374 C.3     1  LIG1        0.0000
     19 C19         7.5280    6.0618    1.0113 C.3     1  LIG1        0.0000
     20 C20         6.2289    5.5648    1.0106 C.3     1  LIG1        0.0000
     21 C21         3.5916    4.4456    1.0069 C.2     1  LIG1        0.0000
     22 C22         2.5503    3.5637    1.0046 C.2     1  LIG1        0.0000
     23 O23         1.2335    3.8758    1.0112 O.2     1  LIG1       -1.0000
     24 N24         0.6321   -1.3246    0.2881 N.pl3   1  LIG1        0.0000
     25 C25         1.7939   -1.4466   -0.6041 C.3     1  LIG1        0.0000
     26 C26         2.8190   -2.3773    0.0232 C.3     1  LIG1        0.0000
     27 C27        -0.2862   -2.2984    0.5533 C.3     1  LIG1        0.0000
     28 C28        -0.4700   -3.6155    0.1393 C.3     1  LIG1        0.0000
     29 C29        -1.5310   -4.3917    0.5946 C.3     1  LIG1        0.0000
     30 C30        -2.4341   -3.8292    1.4893 C.3     1  LIG1        0.0000
     31 C31        -2.2493   -2.5129    1.8989 C.3     1  LIG1        0.0000
     32 C32        -1.1828   -1.7468    1.4342 C.3     1  LIG1        0.0000
     33 H          -3.8786    2.7743    2.1893 H       1  LIG1        0.0000
     34 H          -3.6544    1.7551    3.4453 H       1  LIG1        0.0000
     35 H          -2.5272    2.8849    3.0993 H       1  LIG1        0.0000
     36 H          -3.1700    0.6439    1.3957 H       1  LIG1        0.0000
     37 H          -2.0428    1.7737    1.0496 H       1  LIG1        0.0000
     38 H          -0.7931    1.1139    2.9663 H       1  LIG1        0.0000
     39 H          -1.9203   -0.0158    3.3123 H       1  LIG1        0.0000
     40 H           0.5000    1.8660    1.0000 H       1  LIG1        0.0000
     41 H           6.9526    2.3239    0.9986 H       1  LIG1        0.0000
     42 H           9.1900    3.1839    0.9980 H       1  LIG1        0.0000
     43 H           9.9948    6.7349    1.0098 H       1  LIG1        0.0000
     44 H          11.6904    5.6081    2.2449 H       1  LIG1        0.0000
     45 H          10.2778    5.5623    3.0629 H       1  LIG1        0.0000
     46 H          10.7885    4.2468    2.2411 H       1  LIG1        0.0000
     47 H          11.6875    5.6168   -0.2372 H       1  LIG1        0.0000
     48 H          10.7856    4.2555   -0.2410 H       1  LIG1        0.0000
     49 H          10.2730    5.5768   -1.0522 H       1  LIG1        0.0000
     50 H           7.6854    7.0493    1.0156 H       1  LIG1        0.0000
     51 H           5.4479    6.1893    1.0141 H       1  LIG1        0.0000
     52 H           3.5368    5.4441    1.0099 H       1  LIG1        0.0000
     53 H           2.2034   -0.5450   -0.7433 H       1  LIG1        0.0000
     54 H           1.5004   -1.8189   -1.4846 H       1  LIG1        0.0000
     55 H           3.6094   -2.4603   -0.5838 H       1  LIG1        0.0000
     56 H           3.1125   -2.0049    0.9037 H       1  LIG1        0.0000
     57 H           2.4095   -3.2789    0.1624 H       1  LIG1        0.0000
     58 H           0.1812   -4.0158   -0.5055 H       1  LIG1        0.0000
     59 H          -1.6418   -5.3359    0.2843 H       1  LIG1        0.0000
     60 H          -3.2060   -4.3636    1.8337 H       1  LIG1        0.0000
     61 H          -2.8979   -2.1066    2.5426 H       1  LIG1        0.0000
@<TRIPOS>UNITY_ATOM_ATTR
23 1
charge -1
@<TRIPOS>BOND
     1     1     2    1
     2     2     3    1
     3     3     4    1
     4     4     5    2
     5     5     6    1
     6     6     7   am
     7     7     8    2
     8     7     9    1
     9     9    10    2
    10    10    11    1
    11    11    12    1
    12    12    13   ar
    13    13    14   ar
    14    14    15   ar
    15    15    16    1
    16    16    17    1
    17    16    18    1
    18    15    19   ar
    19    19    20   ar
    20    20    12   ar
    21    11    21    1
    22    21    22    2
    23    22     9    1
    24    22    23    1
    25     5    24    1
    26    24    25    1
    27    25    26    1
    28    24    27    1
    29    27    28   ar
    30    28    29   ar
    31    29    30   ar
    32    30    31   ar
    33    31    32   ar
    34    32    27   ar
    35    32     4    1
    36     1    33    1
    37     1    34    1
    38     1    35    1
    39     2    36    1
    40     2    37    1
    41     3    38    1
    42     3    39    1
    43     6    40    1
    44    13    41    1
    45    14    42    1
    46    16    43    1
    47    17    44    1
    48    17    45    1
    49    17    46    1
    50    18    47    1
    51    18    48    1
    52    18    49    1
    53    19    50    1
    54    20    51    1
    55    21    52    1
    56    25    53    1
    57    25    54    1
    58    26    55    1
    59    26    56    1
    60    26    57    1
    61    28    58    1
    62    29    59    1
    63    30    60    1
    64    31    61    1
