@<TRIPOS>MOLECULE
*****
 61 64 0 0 0
SMALL
USER_CHARGES

@<TRIPOS>ATOM
      1 C1         -1.6049    1.3352   -2.9033 C.3     1  LIG1        0.0000
      2 C2         -0.9027    0.3521   -1.9810 C.3     1  LIG1        0.0000
      3 C3         -1.4658    0.4851   -0.5754 C.3     1  LIG1        0.0000
      4 N4         -0.7863   -0.4661    0.3170 N.2     1  LIG1        1.0000
      5 C5          0.2997   -0.2130    1.0000 C.2     1  LIG1        0.0000
      6 N6          1.0000    1.0000    1.0000 N.am    1  LIG1        0.0000
      7 C7          2.3700    1.0000    1.0000 C.2     1  LIG1        0.0000
      8 O8          2.9700   -0.0392    1.0000 O.2     1  LIG1        0.0000
      9 C9          3.0942    2.2543    1.0000 C.2     1  LIG1        0.0000
     10 N10         4.3891    2.4057    1.0000 N.2     1  LIG1        0.0000
     11 N11         4.7240    3.6825    1.0042 N.pl3   1  LIG1        0.0000
     12 C12         6.0297    4.1882    1.0051 C.3     1  LIG1        0.0000
     13 C13         7.1101    3.3114    1.0013 C.3     1  LIG1        0.0000
     14 C14         8.4090    3.8084    1.0013 C.3     1  LIG1        0.0000
     15 C15         8.6080    5.1855    1.0059 C.3     1  LIG1        0.0000
     16 C16        10.0251    5.7354    1.0062 C.3     1  LIG1        0.0000
     17 C17        10.7581    5.2463    2.2447 C.3     1  LIG1        0.0000
     18 C18        10.7553    5.2551   -0.2374 C.3     1  LIG1        0.0000
     19 C19         7.5280    6.0618    1.0113 C.3     1  LIG1        0.0000
     20 C20         6.2289    5.5648    1.0106 C.3     1  LIG1        0.0000
     21 C21         3.5916    4.4456    1.0069 C.2     1  LIG1        0.0000
     22 C22         2.5503    3.5637    1.0046 C.2     1  LIG1        0.0000
     23 O23         1.2335    3.8758    1.0112 O.2     1  LIG1       -1.0000
     24 N24         0.6355   -1.3265    1.7073 N.pl3   1  LIG1        0.0000
     25 C25         1.7945   -1.4469    2.6033 C.3     1  LIG1        0.0000
     26 C26         1.3255   -1.8786    3.9832 C.3     1  LIG1        0.0000
     27 C27        -0.2883   -2.2972    1.4496 C.3     1  LIG1        0.0000
     28 C28        -0.4764   -3.6118    1.8695 C.3     1  LIG1        0.0000
     29 C29        -1.5459   -4.3831    1.4259 C.3     1  LIG1        0.0000
     30 C30        -2.4511   -3.8194    0.5340 C.3     1  LIG1        0.0000
     31 C31        -2.2591   -2.5072    0.1146 C.3     1  LIG1        0.0000
     32 C32        -1.1831   -1.7466    0.5663 C.3     1  LIG1        0.0000
     33 H          -1.2344    1.2477   -3.8280 H       1  LIG1        0.0000
     34 H          -2.5851    1.1378   -2.9168 H       1  LIG1        0.0000
     35 H          -1.4571    2.2671   -2.5718 H       1  LIG1        0.0000
     36 H          -1.0505   -0.5798   -2.3124 H       1  LIG1        0.0000
     37 H           0.0775    0.5495   -1.9674 H       1  LIG1        0.0000
     38 H          -1.3180    1.4170   -0.2439 H       1  LIG1        0.0000
     39 H          -2.4460    0.2877   -0.5889 H       1  LIG1        0.0000
     40 H           0.5000    1.8660    1.0000 H       1  LIG1        0.0000
     41 H           6.9526    2.3239    0.9986 H       1  LIG1        0.0000
     42 H           9.1900    3.1839    0.9980 H       1  LIG1        0.0000
     43 H           9.9948    6.7349    1.0098 H       1  LIG1        0.0000
     44 H          11.6904    5.6081    2.2449 H       1  LIG1        0.0000
     45 H          10.2778    5.5623    3.0629 H       1  LIG1        0.0000
     46 H          10.7885    4.2468    2.2411 H       1  LIG1        0.0000
     47 H          11.6875    5.6168   -0.2372 H       1  LIG1        0.0000
     48 H          10.7856    4.2555   -0.2410 H       1  LIG1        0.0000
     49 H          10.2730    5.5768   -1.0522 H       1  LIG1        0.0000
     50 H           7.6854    7.0493    1.0156 H       1  LIG1        0.0000
     51 H           5.4479    6.1893    1.0141 H       1  LIG1        0.0000
     52 H           3.5368    5.4441    1.0099 H       1  LIG1        0.0000
     53 H           2.2575   -0.5631    2.6699 H       1  LIG1        0.0000
     54 H           2.4286   -2.1287    2.2383 H       1  LIG1        0.0000
     55 H           2.1140   -1.9605    4.5927 H       1  LIG1        0.0000
     56 H           0.6915   -1.1968    4.3481 H       1  LIG1        0.0000
     57 H           0.8625   -2.7624    3.9165 H       1  LIG1        0.0000
     58 H           0.1779   -4.0139    2.5101 H       1  LIG1        0.0000
     59 H          -1.6612   -5.3247    1.7424 H       1  LIG1        0.0000
     60 H          -3.2295   -4.3501    0.1986 H       1  LIG1        0.0000
     61 H          -2.9094   -2.1000   -0.5268 H       1  LIG1        0.0000
@<TRIPOS>UNITY_ATOM_ATTR
23 1
charge -1
@<TRIPOS>BOND
     1     1     2    1
     2     2     3    1
     3     3     4    1
     4     4     5    2
     5     5     6    1
     6     6     7   am
     7     7     8    2
     8     7     9    1
     9     9    10    2
    10    10    11    1
    11    11    12    1
    12    12    13   ar
    13    13    14   ar
    14    14    15   ar
    15    15    16    1
    16    16    17    1
    17    16    18    1
    18    15    19   ar
    19    19    20   ar
    20    20    12   ar
    21    11    21    1
    22    21    22    2
    23    22     9    1
    24    22    23    1
    25     5    24    1
    26    24    25    1
    27    25    26    1
    28    24    27    1
    29    27    28   ar
    30    28    29   ar
    31    29    30   ar
    32    30    31   ar
    33    31    32   ar
    34    32    27   ar
    35    32     4    1
    36     1    33    1
    37     1    34    1
    38     1    35    1
    39     2    36    1
    40     2    37    1
    41     3    38    1
    42     3    39    1
    43     6    40    1
    44    13    41    1
    45    14    42    1
    46    16    43    1
    47    17    44    1
    48    17    45    1
    49    17    46    1
    50    18    47    1
    51    18    48    1
    52    18    49    1
    53    19    50    1
    54    20    51    1
    55    21    52    1
    56    25    53    1
    57    25    54    1
    58    26    55    1
    59    26    56    1
    60    26    57    1
    61    28    58    1
    62    29    59    1
    63    30    60    1
    64    31    61    1
