@<TRIPOS>MOLECULE
*****
 61 64 0 0 0
SMALL
USER_CHARGES

@<TRIPOS>ATOM
      1 C1         -0.5541    1.2331   -3.1262 C.3     1  LIG1        0.0000
      2 C2         -0.9972    0.4078   -1.9292 C.3     1  LIG1        0.0000
      3 C3          0.1603   -0.4537   -1.4513 C.3     1  LIG1        0.0000
      4 N4         -0.0814   -0.8731   -0.0625 N.2     1  LIG1        1.0000
      5 C5          0.2997   -0.2130    1.0000 C.2     1  LIG1        0.0000
      6 N6          1.0000    1.0000    1.0000 N.am    1  LIG1        0.0000
      7 C7          2.3700    1.0000    1.0000 C.2     1  LIG1        0.0000
      8 O8          2.9700   -0.0392    1.0000 O.2     1  LIG1        0.0000
      9 C9          3.0942    2.2543    1.0000 C.2     1  LIG1        0.0000
     10 N10         4.3345    2.4373    1.3577 N.2     1  LIG1        0.0000
     11 N11         4.6863    3.7042    1.2425 N.pl3   1  LIG1        0.0000
     12 C12         5.9459    4.2366    1.5436 C.3     1  LIG1        0.0000
     13 C13         6.7251    3.6489    2.5354 C.3     1  LIG1        0.0000
     14 C14         7.9773    4.1731    2.8378 C.3     1  LIG1        0.0000
     15 C15         8.4333    5.2861    2.1382 C.3     1  LIG1        0.0000
     16 C16         9.8009    5.8643    2.4640 C.3     1  LIG1        0.0000
     17 C17         9.7954    7.3604    2.1956 C.3     1  LIG1        0.0000
     18 C18        10.1213    5.6134    3.9285 C.3     1  LIG1        0.0000
     19 C19         7.6537    5.8744    1.1480 C.3     1  LIG1        0.0000
     20 C20         6.4016    5.3497    0.8450 C.3     1  LIG1        0.0000
     21 C21         3.6243    4.4267    0.7791 C.2     1  LIG1        0.0000
     22 C22         2.6077    3.5305    0.6193 C.2     1  LIG1        0.0000
     23 O23         1.3567    3.8046    0.1821 O.2     1  LIG1       -1.0000
     24 N24        -0.0959   -0.9043    2.1039 N.pl3   1  LIG1        0.0000
     25 C25         0.1395   -0.4914    3.4949 C.3     1  LIG1        0.0000
     26 C26        -0.7079    0.7301    3.8113 C.3     1  LIG1        0.0000
     27 C27        -0.7514   -2.0298    1.6972 C.3     1  LIG1        0.0000
     28 C28        -1.3710   -3.0952    2.3459 C.3     1  LIG1        0.0000
     29 C29        -1.9790   -4.1331    1.6466 C.3     1  LIG1        0.0000
     30 C30        -1.9628   -4.1013    0.2569 C.3     1  LIG1        0.0000
     31 C31        -1.3411   -3.0373   -0.3879 C.3     1  LIG1        0.0000
     32 C32        -0.7353   -2.0051    0.3249 C.3     1  LIG1        0.0000
     33 H          -1.3156    1.7999   -3.4406 H       1  LIG1        0.0000
     34 H           0.2111    1.8200   -2.8615 H       1  LIG1        0.0000
     35 H          -0.2662    0.6225   -3.8639 H       1  LIG1        0.0000
     36 H          -1.2851    1.0184   -1.1914 H       1  LIG1        0.0000
     37 H          -1.7624   -0.1791   -2.1939 H       1  LIG1        0.0000
     38 H           0.2375   -1.2620   -2.0350 H       1  LIG1        0.0000
     39 H           1.0091    0.0731   -1.4974 H       1  LIG1        0.0000
     40 H           0.5000    1.8660    1.0000 H       1  LIG1        0.0000
     41 H           6.3848    2.8497    3.0307 H       1  LIG1        0.0000
     42 H           8.5427    3.7554    3.5489 H       1  LIG1        0.0000
     43 H          10.4933    5.4255    1.8913 H       1  LIG1        0.0000
     44 H          10.6951    7.7408    2.4099 H       1  LIG1        0.0000
     45 H           9.5846    7.5255    1.2321 H       1  LIG1        0.0000
     46 H           9.1030    7.7993    2.7682 H       1  LIG1        0.0000
     47 H          11.0210    5.9938    4.1428 H       1  LIG1        0.0000
     48 H           9.4289    6.0523    4.5011 H       1  LIG1        0.0000
     49 H          10.1249    4.6292    4.1050 H       1  LIG1        0.0000
     50 H           7.9933    6.6746    0.6537 H       1  LIG1        0.0000
     51 H           5.8362    5.7676    0.1340 H       1  LIG1        0.0000
     52 H           3.5971    5.4092    0.5949 H       1  LIG1        0.0000
     53 H           1.1064   -0.2670    3.6169 H       1  LIG1        0.0000
     54 H          -0.1096   -1.2386    4.1111 H       1  LIG1        0.0000
     55 H          -0.5477    1.0110    4.7575 H       1  LIG1        0.0000
     56 H          -0.4588    1.4773    3.1951 H       1  LIG1        0.0000
     57 H          -1.6747    0.5057    3.6893 H       1  LIG1        0.0000
     58 H          -1.3792   -3.1149    3.3457 H       1  LIG1        0.0000
     59 H          -2.4191   -4.8871    2.1342 H       1  LIG1        0.0000
     60 H          -2.3923   -4.8334   -0.2718 H       1  LIG1        0.0000
     61 H          -1.3286   -3.0126   -1.3876 H       1  LIG1        0.0000
@<TRIPOS>UNITY_ATOM_ATTR
23 1
charge -1
@<TRIPOS>BOND
     1     1     2    1
     2     2     3    1
     3     3     4    1
     4     4     5    2
     5     5     6    1
     6     6     7   am
     7     7     8    2
     8     7     9    1
     9     9    10    2
    10    10    11    1
    11    11    12    1
    12    12    13   ar
    13    13    14   ar
    14    14    15   ar
    15    15    16    1
    16    16    17    1
    17    16    18    1
    18    15    19   ar
    19    19    20   ar
    20    20    12   ar
    21    11    21    1
    22    21    22    2
    23    22     9    1
    24    22    23    1
    25     5    24    1
    26    24    25    1
    27    25    26    1
    28    24    27    1
    29    27    28   ar
    30    28    29   ar
    31    29    30   ar
    32    30    31   ar
    33    31    32   ar
    34    32    27   ar
    35    32     4    1
    36     1    33    1
    37     1    34    1
    38     1    35    1
    39     2    36    1
    40     2    37    1
    41     3    38    1
    42     3    39    1
    43     6    40    1
    44    13    41    1
    45    14    42    1
    46    16    43    1
    47    17    44    1
    48    17    45    1
    49    17    46    1
    50    18    47    1
    51    18    48    1
    52    18    49    1
    53    19    50    1
    54    20    51    1
    55    21    52    1
    56    25    53    1
    57    25    54    1
    58    26    55    1
    59    26    56    1
    60    26    57    1
    61    28    58    1
    62    29    59    1
    63    30    60    1
    64    31    61    1
