@<TRIPOS>MOLECULE

  24   24
SMALL
USER_CHARGES
@<TRIPOS>ATOM
   1 C1          -0.6339     2.3969     2.2411 C.3          1    LIG   0.0000
   2 C2           0.2400     2.3164     1.0000 C.3          1    LIG   0.0000
   3 C3           1.0000     1.0000     1.0000 C.2          1    LIG   0.0000
   4 C4           2.3000     1.0000     1.0000 C.2          1    LIG   0.0000
   5 S5           3.2050     2.5675     1.0000 S.o          1    LIG   0.0000
   6 O6           4.0616     2.6464    -0.2166 O.2          1    LIG   0.0000
   7 C7           4.2052     2.6597     2.4205 C.ar         1    LIG   0.0000
   8 C8           5.5080     2.1728     2.3790 C.ar         1    LIG   0.0000
   9 C9           6.3089     2.2447     3.5136 C.ar         1    LIG   0.0000
  10 C10          5.7943     2.8047     4.6780 C.ar         1    LIG   0.0000
  11 F11          6.5566     2.8770     5.7661 F            1    LIG   0.0000
  12 C12          4.4914     3.2899     4.7171 C.ar         1    LIG   0.0000
  13 C13          3.6890     3.2194     3.5839 C.ar         1    LIG   0.0000
  14 H           -1.1339     3.2629     2.2411 H            1    LIG   0.0000
  15 H           -1.2837     1.6368     2.2411 H            1    LIG   0.0000
  16 H           -0.0590     2.3439     3.0576 H            1    LIG   0.0000
  17 H           -0.3349     2.3693     0.1835 H            1    LIG   0.0000
  18 H            0.8898     3.0764     1.0000 H            1    LIG   0.0000
  19 H            0.5000     0.1340     1.0000 H            1    LIG   0.0000
  20 H            2.8000     0.1340     1.0000 H            1    LIG   0.0000
  21 H            5.8672     1.7725     1.5360 H            1    LIG   0.0000
  22 H            7.2463     1.8969     3.4925 H            1    LIG   0.0000
  23 H            4.1317     3.6894     5.5603 H            1    LIG   0.0000
  24 H            2.7516     3.5672     3.6053 H            1    LIG   0.0000
@<TRIPOS>BOND
   1        1        2 1
   2        2        3 1
   3        3        4 2
   4        4        5 1
   5        5        6 2
   6        5        7 1
   7        7        8 ar
   8        8        9 ar
   9        9       10 ar
  10       10       11 1
  11       10       12 ar
  12       12       13 ar
  13       13        7 ar
  14        1       14 1
  15        1       15 1
  16        1       16 1
  17        2       17 1
  18        2       18 1
  19        3       19 1
  20        4       20 1
  21        8       21 1
  22        9       22 1
  23       12       23 1
  24       13       24 1

@<TRIPOS>MOLECULE

  24   24
SMALL
USER_CHARGES
@<TRIPOS>ATOM
   1 C1          -0.6339     2.3969     2.2411 C.3          1    LIG   0.0000
   2 C2           0.2400     2.3164     1.0000 C.3          1    LIG   0.0000
   3 C3           1.0000     1.0000     1.0000 C.2          1    LIG   0.0000
   4 C4           2.3000     1.0000     1.0000 C.2          1    LIG   0.0000
   5 S5           3.2050     2.5675     1.0000 S.o          1    LIG   0.0000
   6 O6           4.0616     2.6464    -0.2166 O.2          1    LIG   0.0000
   7 C7           4.2052     2.6597     2.4205 C.ar         1    LIG   0.0000
   8 C8           5.3971     3.3763     2.3790 C.ar         1    LIG   0.0000
   9 C9           6.1986     3.4506     3.5131 C.ar         1    LIG   0.0000
  10 C10          5.7954     2.8051     4.6772 C.ar         1    LIG   0.0000
  11 F11          6.5578     2.8737     5.7654 F            1    LIG   0.0000
  12 C12          4.6039     2.0886     4.7158 C.ar         1    LIG   0.0000
  13 C13          3.8009     2.0133     3.5833 C.ar         1    LIG   0.0000
  14 H           -1.1339     3.2629     2.2411 H            1    LIG   0.0000
  15 H           -1.2837     1.6368     2.2411 H            1    LIG   0.0000
  16 H           -0.0590     2.3439     3.0576 H            1    LIG   0.0000
  17 H           -0.3349     2.3693     0.1835 H            1    LIG   0.0000
  18 H            0.8898     3.0764     1.0000 H            1    LIG   0.0000
  19 H            0.5000     0.1340     1.0000 H            1    LIG   0.0000
  20 H            2.8000     0.1340     1.0000 H            1    LIG   0.0000
  21 H            5.6765     3.8366     1.5364 H            1    LIG   0.0000
  22 H            7.0569     3.9633     3.4918 H            1    LIG   0.0000
  23 H            4.3248     1.6275     5.5581 H            1    LIG   0.0000
  24 H            2.9427     1.5005     3.6048 H            1    LIG   0.0000
@<TRIPOS>BOND
   1        1        2 1
   2        2        3 1
   3        3        4 2
   4        4        5 1
   5        5        6 2
   6        5        7 1
   7        7        8 ar
   8        8        9 ar
   9        9       10 ar
  10       10       11 1
  11       10       12 ar
  12       12       13 ar
  13       13        7 ar
  14        1       14 1
  15        1       15 1
  16        1       16 1
  17        2       17 1
  18        2       18 1
  19        3       19 1
  20        4       20 1
  21        8       21 1
  22        9       22 1
  23       12       23 1
  24       13       24 1

@<TRIPOS>MOLECULE

  24   24
SMALL
USER_CHARGES
@<TRIPOS>ATOM
   1 C1          -0.6339     2.3969     2.2411 C.3          1    LIG   0.0000
   2 C2           0.2400     2.3164     1.0000 C.3          1    LIG   0.0000
   3 C3           1.0000     1.0000     1.0000 C.2          1    LIG   0.0000
   4 C4           2.3000     1.0000     1.0000 C.2          1    LIG   0.0000
   5 S5           3.2050     2.5675     1.0000 S.o          1    LIG   0.0000
   6 O6           4.0616     2.6464    -0.2166 O.2          1    LIG   0.0000
   7 C7           4.2052     2.6597     2.4205 C.ar         1    LIG   0.0000
   8 C8           4.7124     1.4927     2.9833 C.ar         1    LIG   0.0000
   9 C9           5.5114     1.5640     4.1194 C.ar         1    LIG   0.0000
  10 C10          5.7934     2.8058     4.6785 C.ar         1    LIG   0.0000
  11 F11          6.5582     2.8799     5.7648 F            1    LIG   0.0000
  12 C12          5.2845     3.9708     4.1145 C.ar         1    LIG   0.0000
  13 C13          4.4858     3.9019     2.9786 C.ar         1    LIG   0.0000
  14 H           -1.1339     3.2629     2.2411 H            1    LIG   0.0000
  15 H           -1.2837     1.6368     2.2411 H            1    LIG   0.0000
  16 H           -0.0590     2.3439     3.0576 H            1    LIG   0.0000
  17 H           -0.3349     2.3693     0.1835 H            1    LIG   0.0000
  18 H            0.8898     3.0764     1.0000 H            1    LIG   0.0000
  19 H            0.5000     0.1340     1.0000 H            1    LIG   0.0000
  20 H            2.8000     0.1340     1.0000 H            1    LIG   0.0000
  21 H            4.5031     0.6054     2.5723 H            1    LIG   0.0000
  22 H            5.8797     0.7301     4.5304 H            1    LIG   0.0000
  23 H            5.4930     4.8580     4.5260 H            1    LIG   0.0000
  24 H            4.1175     4.7359     2.5678 H            1    LIG   0.0000
@<TRIPOS>BOND
   1        1        2 1
   2        2        3 1
   3        3        4 2
   4        4        5 1
   5        5        6 2
   6        5        7 1
   7        7        8 ar
   8        8        9 ar
   9        9       10 ar
  10       10       11 1
  11       10       12 ar
  12       12       13 ar
  13       13        7 ar
  14        1       14 1
  15        1       15 1
  16        1       16 1
  17        2       17 1
  18        2       18 1
  19        3       19 1
  20        4       20 1
  21        8       21 1
  22        9       22 1
  23       12       23 1
  24       13       24 1

@<TRIPOS>MOLECULE

  24   24
SMALL
USER_CHARGES
@<TRIPOS>ATOM
   1 C1          -0.6339     2.3969     2.2411 C.3          1    LIG   0.0000
   2 C2           0.2400     2.3164     1.0000 C.3          1    LIG   0.0000
   3 C3           1.0000     1.0000     1.0000 C.2          1    LIG   0.0000
   4 C4           2.3000     1.0000     1.0000 C.2          1    LIG   0.0000
   5 S5           3.2050     2.5675     1.0000 S.o          1    LIG   0.0000
   6 O6           2.8450     3.3488     2.2166 O.2          1    LIG   0.0000
   7 C7           2.7847     3.4798    -0.4205 C.ar         1    LIG   0.0000
   8 C8           2.2053     4.7375    -0.2856 C.ar         1    LIG   0.0000
   9 C9           1.8677     5.4681    -1.4197 C.ar         1    LIG   0.0000
  10 C10          2.1155     4.9290    -2.6776 C.ar         1    LIG   0.0000
  11 F11          1.7955     5.6241    -3.7660 F            1    LIG   0.0000
  12 C12          2.6940     3.6711    -2.8098 C.ar         1    LIG   0.0000
  13 C13          3.0327     2.9392    -1.6773 C.ar         1    LIG   0.0000
  14 H           -1.1339     3.2629     2.2411 H            1    LIG   0.0000
  15 H           -1.2837     1.6368     2.2411 H            1    LIG   0.0000
  16 H           -0.0590     2.3439     3.0576 H            1    LIG   0.0000
  17 H           -0.3349     2.3693     0.1835 H            1    LIG   0.0000
  18 H            0.8898     3.0764     1.0000 H            1    LIG   0.0000
  19 H            0.5000     0.1340     1.0000 H            1    LIG   0.0000
  20 H            2.8000     0.1340     1.0000 H            1    LIG   0.0000
  21 H            2.0321     5.1150     0.6241 H            1    LIG   0.0000
  22 H            1.4506     6.3727    -1.3316 H            1    LIG   0.0000
  23 H            2.8664     3.2932    -3.7194 H            1    LIG   0.0000
  24 H            3.4496     2.0345    -1.7656 H            1    LIG   0.0000
@<TRIPOS>BOND
   1        1        2 1
   2        2        3 1
   3        3        4 2
   4        4        5 1
   5        5        6 2
   6        5        7 1
   7        7        8 ar
   8        8        9 ar
   9        9       10 ar
  10       10       11 1
  11       10       12 ar
  12       12       13 ar
  13       13        7 ar
  14        1       14 1
  15        1       15 1
  16        1       16 1
  17        2       17 1
  18        2       18 1
  19        3       19 1
  20        4       20 1
  21        8       21 1
  22        9       22 1
  23       12       23 1
  24       13       24 1

@<TRIPOS>MOLECULE

  24   24
SMALL
USER_CHARGES
@<TRIPOS>ATOM
   1 C1          -0.6339     2.3969     2.2411 C.3          1    LIG   0.0000
   2 C2           0.2400     2.3164     1.0000 C.3          1    LIG   0.0000
   3 C3           1.0000     1.0000     1.0000 C.2          1    LIG   0.0000
   4 C4           2.3000     1.0000     1.0000 C.2          1    LIG   0.0000
   5 S5           3.2050     2.5675     1.0000 S.o          1    LIG   0.0000
   6 O6           2.5214     3.5357     1.9030 O.2          1    LIG   0.0000
   7 C7           3.2483     3.2122    -0.6154 C.ar         1    LIG   0.0000
   8 C8           2.2347     4.0627    -1.0455 C.ar         1    LIG   0.0000
   9 C9           2.2668     4.5784    -2.3366 C.ar         1    LIG   0.0000
  10 C10          3.3162     4.2355    -3.1825 C.ar         1    LIG   0.0000
  11 F11          3.3524     4.7269    -4.4185 F            1    LIG   0.0000
  12 C12          4.3277     3.3844    -2.7504 C.ar         1    LIG   0.0000
  13 C13          4.2978     2.8679    -1.4600 C.ar         1    LIG   0.0000
  14 H           -1.1339     3.2629     2.2411 H            1    LIG   0.0000
  15 H           -1.2837     1.6368     2.2411 H            1    LIG   0.0000
  16 H           -0.0590     2.3439     3.0576 H            1    LIG   0.0000
  17 H           -0.3349     2.3693     0.1835 H            1    LIG   0.0000
  18 H            0.8898     3.0764     1.0000 H            1    LIG   0.0000
  19 H            0.5000     0.1340     1.0000 H            1    LIG   0.0000
  20 H            2.8000     0.1340     1.0000 H            1    LIG   0.0000
  21 H            1.4854     4.3024    -0.4282 H            1    LIG   0.0000
  22 H            1.5421     5.1901    -2.6539 H            1    LIG   0.0000
  23 H            5.0766     3.1439    -3.3680 H            1    LIG   0.0000
  24 H            5.0225     2.2561    -1.1429 H            1    LIG   0.0000
@<TRIPOS>BOND
   1        1        2 1
   2        2        3 1
   3        3        4 2
   4        4        5 1
   5        5        6 2
   6        5        7 1
   7        7        8 ar
   8        8        9 ar
   9        9       10 ar
  10       10       11 1
  11       10       12 ar
  12       12       13 ar
  13       13        7 ar
  14        1       14 1
  15        1       15 1
  16        1       16 1
  17        2       17 1
  18        2       18 1
  19        3       19 1
  20        4       20 1
  21        8       21 1
  22        9       22 1
  23       12       23 1
  24       13       24 1

@<TRIPOS>MOLECULE

  24   24
SMALL
USER_CHARGES
@<TRIPOS>ATOM
   1 C1          -0.6339     2.3969     2.2411 C.3          1    LIG   0.0000
   2 C2           0.2400     2.3164     1.0000 C.3          1    LIG   0.0000
   3 C3           1.0000     1.0000     1.0000 C.2          1    LIG   0.0000
   4 C4           2.3000     1.0000     1.0000 C.2          1    LIG   0.0000
   5 S5           3.2050     2.5675     1.0000 S.o          1    LIG   0.0000
   6 O6           2.5214     3.5357     1.9030 O.2          1    LIG   0.0000
   7 C7           3.2483     3.2122    -0.6154 C.ar         1    LIG   0.0000
   8 C8           2.2042     2.9408    -1.4940 C.ar         1    LIG   0.0000
   9 C9           2.2372     3.4543    -2.7860 C.ar         1    LIG   0.0000
  10 C10          3.3176     4.2352    -3.1826 C.ar         1    LIG   0.0000
  11 F11          3.3537     4.7300    -4.4172 F            1    LIG   0.0000
  12 C12          4.3605     4.5043    -2.3026 C.ar         1    LIG   0.0000
  13 C13          4.3294     3.9922    -1.0104 C.ar         1    LIG   0.0000
  14 H           -1.1339     3.2629     2.2411 H            1    LIG   0.0000
  15 H           -1.2837     1.6368     2.2411 H            1    LIG   0.0000
  16 H           -0.0590     2.3439     3.0576 H            1    LIG   0.0000
  17 H           -0.3349     2.3693     0.1835 H            1    LIG   0.0000
  18 H            0.8898     3.0764     1.0000 H            1    LIG   0.0000
  19 H            0.5000     0.1340     1.0000 H            1    LIG   0.0000
  20 H            2.8000     0.1340     1.0000 H            1    LIG   0.0000
  21 H            1.4324     2.3783    -1.1974 H            1    LIG   0.0000
  22 H            1.4910     3.2639    -3.4240 H            1    LIG   0.0000
  23 H            5.1327     5.0661    -2.5994 H            1    LIG   0.0000
  24 H            5.0757     4.1827    -0.3727 H            1    LIG   0.0000
@<TRIPOS>BOND
   1        1        2 1
   2        2        3 1
   3        3        4 2
   4        4        5 1
   5        5        6 2
   6        5        7 1
   7        7        8 ar
   8        8        9 ar
   9        9       10 ar
  10       10       11 1
  11       10       12 ar
  12       12       13 ar
  13       13        7 ar
  14        1       14 1
  15        1       15 1
  16        1       16 1
  17        2       17 1
  18        2       18 1
  19        3       19 1
  20        4       20 1
  21        8       21 1
  22        9       22 1
  23       12       23 1
  24       13       24 1

@<TRIPOS>MOLECULE

  24   24
SMALL
USER_CHARGES
@<TRIPOS>ATOM
   1 C1          -0.6339     2.3969     2.2411 C.3          1    LIG   0.0000
   2 C2           0.2400     2.3164     1.0000 C.3          1    LIG   0.0000
   3 C3           1.0000     1.0000     1.0000 C.2          1    LIG   0.0000
   4 C4           2.3000     1.0000     1.0000 C.2          1    LIG   0.0000
   5 S5           3.2050     2.5675     1.0000 S.o          1    LIG   0.0000
   6 O6           2.8450     3.3488    -0.2166 O.2          1    LIG   0.0000
   7 C7           4.9155     2.2496     1.0000 C.ar         1    LIG   0.0000
   8 C8           5.5932     2.1236    -0.2086 C.ar         1    LIG   0.0000
   9 C9           6.9603     1.8686    -0.2109 C.ar         1    LIG   0.0000
  10 C10          7.6331     1.7431     0.9998 C.ar         1    LIG   0.0000
  11 F11          8.9413     1.5001     1.0034 F            1    LIG   0.0000
  12 C12          6.9532     1.8685     2.2066 C.ar         1    LIG   0.0000
  13 C13          5.5866     2.1238     2.2113 C.ar         1    LIG   0.0000
  14 H           -1.1339     3.2629     2.2411 H            1    LIG   0.0000
  15 H           -1.2837     1.6368     2.2411 H            1    LIG   0.0000
  16 H           -0.0590     2.3439     3.0576 H            1    LIG   0.0000
  17 H           -0.3349     2.3693     0.1835 H            1    LIG   0.0000
  18 H            0.8898     3.0764     1.0000 H            1    LIG   0.0000
  19 H            0.5000     0.1340     1.0000 H            1    LIG   0.0000
  20 H            2.8000     0.1340     1.0000 H            1    LIG   0.0000
  21 H            5.0988     2.2162    -1.0729 H            1    LIG   0.0000
  22 H            7.4550     1.7764    -1.0751 H            1    LIG   0.0000
  23 H            7.4473     1.7751     3.0709 H            1    LIG   0.0000
  24 H            5.0921     2.2160     3.0755 H            1    LIG   0.0000
@<TRIPOS>BOND
   1        1        2 1
   2        2        3 1
   3        3        4 2
   4        4        5 1
   5        5        6 2
   6        5        7 1
   7        7        8 ar
   8        8        9 ar
   9        9       10 ar
  10       10       11 1
  11       10       12 ar
  12       12       13 ar
  13       13        7 ar
  14        1       14 1
  15        1       15 1
  16        1       16 1
  17        2       17 1
  18        2       18 1
  19        3       19 1
  20        4       20 1
  21        8       21 1
  22        9       22 1
  23       12       23 1
  24       13       24 1

@<TRIPOS>MOLECULE

  24   24
SMALL
USER_CHARGES
@<TRIPOS>ATOM
   1 C1           0.6072     3.1134     2.2411 C.3          1    LIG   0.0000
   2 C2           0.2400     2.3164     1.0000 C.3          1    LIG   0.0000
   3 C3           1.0000     1.0000     1.0000 C.2          1    LIG   0.0000
   4 C4           2.3000     1.0000     1.0000 C.2          1    LIG   0.0000
   5 S5           3.2050     2.5675     1.0000 S.o          1    LIG   0.0000
   6 O6           2.8450     3.3488    -0.2166 O.2          1    LIG   0.0000
   7 C7           4.9155     2.2496     1.0000 C.ar         1    LIG   0.0000
   8 C8           5.7036     2.7178    -0.0467 C.ar         1    LIG   0.0000
   9 C9           7.0709     2.4640    -0.0492 C.ar         1    LIG   0.0000
  10 C10          7.6332     1.7434     0.9991 C.ar         1    LIG   0.0000
  11 F11          8.9410     1.4986     1.0023 F            1    LIG   0.0000
  12 C12          6.8430     1.2757     2.0438 C.ar         1    LIG   0.0000
  13 C13          5.4759     1.5285     2.0485 C.ar         1    LIG   0.0000
  14 H            0.1072     3.9794     2.2411 H            1    LIG   0.0000
  15 H            0.3656     2.5890     3.0576 H            1    LIG   0.0000
  16 H            1.5904     3.2961     2.2411 H            1    LIG   0.0000
  17 H           -0.7432     2.1336     1.0000 H            1    LIG   0.0000
  18 H            0.4816     2.8407     0.1835 H            1    LIG   0.0000
  19 H            0.5000     0.1340     1.0000 H            1    LIG   0.0000
  20 H            2.8000     0.1340     1.0000 H            1    LIG   0.0000
  21 H            5.2881     3.2351    -0.7948 H            1    LIG   0.0000
  22 H            7.6446     2.7966    -0.7977 H            1    LIG   0.0000
  23 H            7.2582     0.7576     2.7916 H            1    LIG   0.0000
  24 H            4.9024     1.1958     2.7971 H            1    LIG   0.0000
@<TRIPOS>BOND
   1        1        2 1
   2        2        3 1
   3        3        4 2
   4        4        5 1
   5        5        6 2
   6        5        7 1
   7        7        8 ar
   8        8        9 ar
   9        9       10 ar
  10       10       11 1
  11       10       12 ar
  12       12       13 ar
  13       13        7 ar
  14        1       14 1
  15        1       15 1
  16        1       16 1
  17        2       17 1
  18        2       18 1
  19        3       19 1
  20        4       20 1
  21        8       21 1
  22        9       22 1
  23       12       23 1
  24       13       24 1

@<TRIPOS>MOLECULE

  24   24
SMALL
USER_CHARGES
@<TRIPOS>ATOM
   1 C1          -0.6339     2.3969     2.2411 C.3          1    LIG   0.0000
   2 C2           0.2400     2.3164     1.0000 C.3          1    LIG   0.0000
   3 C3           1.0000     1.0000     1.0000 C.2          1    LIG   0.0000
   4 C4           2.3000     1.0000     1.0000 C.2          1    LIG   0.0000
   5 S5           3.2050     2.5675     1.0000 S.o          1    LIG   0.0000
   6 O6           2.5214     3.5357     0.0970 O.2          1    LIG   0.0000
   7 C7           4.8298     2.2991     0.4390 C.ar         1    LIG   0.0000
   8 C8           5.5041     3.3146    -0.2318 C.ar         1    LIG   0.0000
   9 C9           6.8026     3.1018    -0.6819 C.ar         1    LIG   0.0000
  10 C10          7.4111     1.8722    -0.4537 C.ar         1    LIG   0.0000
  11 F11          8.6537     1.6636    -0.8813 F            1    LIG   0.0000
  12 C12          6.7346     0.8584     0.2163 C.ar         1    LIG   0.0000
  13 C13          5.4365     1.0690     0.6675 C.ar         1    LIG   0.0000
  14 H           -1.1339     3.2629     2.2411 H            1    LIG   0.0000
  15 H           -1.2837     1.6368     2.2411 H            1    LIG   0.0000
  16 H           -0.0590     2.3439     3.0576 H            1    LIG   0.0000
  17 H           -0.3349     2.3693     0.1835 H            1    LIG   0.0000
  18 H            0.8898     3.0764     1.0000 H            1    LIG   0.0000
  19 H            0.5000     0.1340     1.0000 H            1    LIG   0.0000
  20 H            2.8000     0.1340     1.0000 H            1    LIG   0.0000
  21 H            5.0563     4.1947    -0.3898 H            1    LIG   0.0000
  22 H            7.2942     3.8263    -1.1652 H            1    LIG   0.0000
  23 H            7.1819    -0.0220     0.3736 H            1    LIG   0.0000
  24 H            4.9450     0.3444     1.1506 H            1    LIG   0.0000
@<TRIPOS>BOND
   1        1        2 1
   2        2        3 1
   3        3        4 2
   4        4        5 1
   5        5        6 2
   6        5        7 1
   7        7        8 ar
   8        8        9 ar
   9        9       10 ar
  10       10       11 1
  11       10       12 ar
  12       12       13 ar
  13       13        7 ar
  14        1       14 1
  15        1       15 1
  16        1       16 1
  17        2       17 1
  18        2       18 1
  19        3       19 1
  20        4       20 1
  21        8       21 1
  22        9       22 1
  23       12       23 1
  24       13       24 1

@<TRIPOS>MOLECULE

  24   24
SMALL
USER_CHARGES
@<TRIPOS>ATOM
   1 C1          -0.6339     2.3969     2.2411 C.3          1    LIG   0.0000
   2 C2           0.2400     2.3164     1.0000 C.3          1    LIG   0.0000
   3 C3           1.0000     1.0000     1.0000 C.2          1    LIG   0.0000
   4 C4           2.3000     1.0000     1.0000 C.2          1    LIG   0.0000
   5 S5           3.2050     2.5675     1.0000 S.o          1    LIG   0.0000
   6 O6           2.5214     3.5357     0.0970 O.2          1    LIG   0.0000
   7 C7           4.8298     2.2991     0.4390 C.ar         1    LIG   0.0000
   8 C8           5.0851     1.2775    -0.4705 C.ar         1    LIG   0.0000
   9 C9           6.3833     1.0606    -0.9195 C.ar         1    LIG   0.0000
  10 C10          7.4117     1.8714    -0.4515 C.ar         1    LIG   0.0000
  11 F11          8.6555     1.6690    -0.8786 F            1    LIG   0.0000
  12 C12          7.1541     2.8914     0.4583 C.ar         1    LIG   0.0000
  13 C13          5.8569     3.1103     0.9083 C.ar         1    LIG   0.0000
  14 H           -1.1339     3.2629     2.2411 H            1    LIG   0.0000
  15 H           -1.2837     1.6368     2.2411 H            1    LIG   0.0000
  16 H           -0.0590     2.3439     3.0576 H            1    LIG   0.0000
  17 H           -0.3349     2.3693     0.1835 H            1    LIG   0.0000
  18 H            0.8898     3.0764     1.0000 H            1    LIG   0.0000
  19 H            0.5000     0.1340     1.0000 H            1    LIG   0.0000
  20 H            2.8000     0.1340     1.0000 H            1    LIG   0.0000
  21 H            4.3374     0.7011    -0.8002 H            1    LIG   0.0000
  22 H            6.5755     0.3284    -1.5729 H            1    LIG   0.0000
  23 H            7.9018     3.4673     0.7888 H            1    LIG   0.0000
  24 H            5.6649     3.8425     1.5617 H            1    LIG   0.0000
@<TRIPOS>BOND
   1        1        2 1
   2        2        3 1
   3        3        4 2
   4        4        5 1
   5        5        6 2
   6        5        7 1
   7        7        8 ar
   8        8        9 ar
   9        9       10 ar
  10       10       11 1
  11       10       12 ar
  12       12       13 ar
  13       13        7 ar
  14        1       14 1
  15        1       15 1
  16        1       16 1
  17        2       17 1
  18        2       18 1
  19        3       19 1
  20        4       20 1
  21        8       21 1
  22        9       22 1
  23       12       23 1
  24       13       24 1

@<TRIPOS>MOLECULE

  24   24
SMALL
USER_CHARGES
@<TRIPOS>ATOM
   1 C1           0.6072     3.1134     2.2411 C.3          1    LIG   0.0000
   2 C2           0.2400     2.3164     1.0000 C.3          1    LIG   0.0000
   3 C3           1.0000     1.0000     1.0000 C.2          1    LIG   0.0000
   4 C4           2.3000     1.0000     1.0000 C.2          1    LIG   0.0000
   5 S5           3.2050     2.5675     1.0000 S.o          1    LIG   0.0000
   6 O6           3.2421     3.1196    -0.3834 O.2          1    LIG   0.0000
   7 C7           4.8298     2.2991     1.5610 C.ar         1    LIG   0.0000
   8 C8           5.6627     1.4257     0.8686 C.ar         1    LIG   0.0000
   9 C9           6.9615     1.2089     1.3158 C.ar         1    LIG   0.0000
  10 C10          7.4112     1.8713     2.4531 C.ar         1    LIG   0.0000
  11 F11          8.6533     1.6684     2.8847 F            1    LIG   0.0000
  12 C12          6.5764     2.7432     3.1439 C.ar         1    LIG   0.0000
  13 C13          5.2776     2.9617     2.6984 C.ar         1    LIG   0.0000
  14 H            0.1072     3.9794     2.2411 H            1    LIG   0.0000
  15 H            0.3656     2.5890     3.0576 H            1    LIG   0.0000
  16 H            1.5904     3.2961     2.2411 H            1    LIG   0.0000
  17 H           -0.7432     2.1336     1.0000 H            1    LIG   0.0000
  18 H            0.4816     2.8407     0.1835 H            1    LIG   0.0000
  19 H            0.5000     0.1340     1.0000 H            1    LIG   0.0000
  20 H            2.8000     0.1340     1.0000 H            1    LIG   0.0000
  21 H            5.3283     0.9552     0.0520 H            1    LIG   0.0000
  22 H            7.5666     0.5826     0.8243 H            1    LIG   0.0000
  23 H            6.9103     3.2130     3.9611 H            1    LIG   0.0000
  24 H            4.6727     3.5880     3.1902 H            1    LIG   0.0000
@<TRIPOS>BOND
   1        1        2 1
   2        2        3 1
   3        3        4 2
   4        4        5 1
   5        5        6 2
   6        5        7 1
   7        7        8 ar
   8        8        9 ar
   9        9       10 ar
  10       10       11 1
  11       10       12 ar
  12       12       13 ar
  13       13        7 ar
  14        1       14 1
  15        1       15 1
  16        1       16 1
  17        2       17 1
  18        2       18 1
  19        3       19 1
  20        4       20 1
  21        8       21 1
  22        9       22 1
  23       12       23 1
  24       13       24 1

@<TRIPOS>MOLECULE

  24   24
SMALL
USER_CHARGES
@<TRIPOS>ATOM
   1 C1          -0.6339     2.3969     2.2411 C.3          1    LIG   0.0000
   2 C2           0.2400     2.3164     1.0000 C.3          1    LIG   0.0000
   3 C3           1.0000     1.0000     1.0000 C.2          1    LIG   0.0000
   4 C4           2.3000     1.0000     1.0000 C.2          1    LIG   0.0000
   5 S5           3.2050     2.5675     1.0000 S.o          1    LIG   0.0000
   6 O6           3.2421     3.1196    -0.3834 O.2          1    LIG   0.0000
   7 C7           4.8298     2.2991     1.5610 C.ar         1    LIG   0.0000
   8 C8           5.4431     1.0708     1.3348 C.ar         1    LIG   0.0000
   9 C9           6.7415     0.8538     1.7831 C.ar         1    LIG   0.0000
  10 C10          7.4111     1.8718     2.4536 C.ar         1    LIG   0.0000
  11 F11          8.6539     1.6699     2.8838 F            1    LIG   0.0000
  12 C12          6.7955     3.0984     2.6793 C.ar         1    LIG   0.0000
  13 C13          5.4977     3.3177     2.2316 C.ar         1    LIG   0.0000
  14 H           -1.1339     3.2629     2.2411 H            1    LIG   0.0000
  15 H           -1.2837     1.6368     2.2411 H            1    LIG   0.0000
  16 H           -0.0590     2.3439     3.0576 H            1    LIG   0.0000
  17 H           -0.3349     2.3693     0.1835 H            1    LIG   0.0000
  18 H            0.8898     3.0764     1.0000 H            1    LIG   0.0000
  19 H            0.5000     0.1340     1.0000 H            1    LIG   0.0000
  20 H            2.8000     0.1340     1.0000 H            1    LIG   0.0000
  21 H            4.9518     0.3464     0.8512 H            1    LIG   0.0000
  22 H            7.1895    -0.0261     1.6250 H            1    LIG   0.0000
  23 H            7.2864     3.8226     3.1635 H            1    LIG   0.0000
  24 H            5.0498     4.1977     2.3899 H            1    LIG   0.0000
@<TRIPOS>BOND
   1        1        2 1
   2        2        3 1
   3        3        4 2
   4        4        5 1
   5        5        6 2
   6        5        7 1
   7        7        8 ar
   8        8        9 ar
   9        9       10 ar
  10       10       11 1
  11       10       12 ar
  12       12       13 ar
  13       13        7 ar
  14        1       14 1
  15        1       15 1
  16        1       16 1
  17        2       17 1
  18        2       18 1
  19        3       19 1
  20        4       20 1
  21        8       21 1
  22        9       22 1
  23       12       23 1
  24       13       24 1

@<TRIPOS>MOLECULE

  24   24
SMALL
USER_CHARGES
@<TRIPOS>ATOM
   1 C1           0.6072     3.1134     2.2411 C.3          1    LIG   0.0000
   2 C2           0.2400     2.3164     1.0000 C.3          1    LIG   0.0000
   3 C3           1.0000     1.0000     1.0000 C.2          1    LIG   0.0000
   4 C4           2.3000     1.0000     1.0000 C.2          1    LIG   0.0000
   5 S5           3.2050     2.5675     1.0000 S.o          1    LIG   0.0000
   6 O6           2.3997     3.6059     0.2976 O.2          1    LIG   0.0000
   7 C7           4.7252     2.3595     0.1799 C.ar         1    LIG   0.0000
   8 C8           4.7405     1.9581    -1.1522 C.ar         1    LIG   0.0000
   9 C9           5.9545     1.7903    -1.8095 C.ar         1    LIG   0.0000
  10 C10          7.1406     2.0275    -1.1231 C.ar         1    LIG   0.0000
  11 F11          8.3049     1.8696    -1.7474 F            1    LIG   0.0000
  12 C12          7.1226     2.4278     0.2088 C.ar         1    LIG   0.0000
  13 C13          5.9101     2.5965     0.8677 C.ar         1    LIG   0.0000
  14 H            0.1072     3.9794     2.2411 H            1    LIG   0.0000
  15 H            0.3656     2.5890     3.0576 H            1    LIG   0.0000
  16 H            1.5904     3.2961     2.2411 H            1    LIG   0.0000
  17 H           -0.7432     2.1336     1.0000 H            1    LIG   0.0000
  18 H            0.4816     2.8407     0.1835 H            1    LIG   0.0000
  19 H            0.5000     0.1340     1.0000 H            1    LIG   0.0000
  20 H            2.8000     0.1340     1.0000 H            1    LIG   0.0000
  21 H            3.8811     1.7908    -1.6356 H            1    LIG   0.0000
  22 H            5.9744     1.5018    -2.7668 H            1    LIG   0.0000
  23 H            7.9819     2.5943     0.6924 H            1    LIG   0.0000
  24 H            5.8903     2.8850     1.8250 H            1    LIG   0.0000
@<TRIPOS>BOND
   1        1        2 1
   2        2        3 1
   3        3        4 2
   4        4        5 1
   5        5        6 2
   6        5        7 1
   7        7        8 ar
   8        8        9 ar
   9        9       10 ar
  10       10       11 1
  11       10       12 ar
  12       12       13 ar
  13       13        7 ar
  14        1       14 1
  15        1       15 1
  16        1       16 1
  17        2       17 1
  18        2       18 1
  19        3       19 1
  20        4       20 1
  21        8       21 1
  22        9       22 1
  23       12       23 1
  24       13       24 1

@<TRIPOS>MOLECULE

  24   24
SMALL
USER_CHARGES
@<TRIPOS>ATOM
   1 C1          -0.6339     2.3969     2.2411 C.3          1    LIG   0.0000
   2 C2           0.2400     2.3164     1.0000 C.3          1    LIG   0.0000
   3 C3           1.0000     1.0000     1.0000 C.2          1    LIG   0.0000
   4 C4           2.3000     1.0000     1.0000 C.2          1    LIG   0.0000
   5 S5           3.2050     2.5675     1.0000 S.o          1    LIG   0.0000
   6 O6           4.6699     2.2952     1.0000 O.2          1    LIG   0.0000
   7 C7           2.7847     3.4798     2.4205 C.ar         1    LIG   0.0000
   8 C8           3.0311     2.9450     3.6811 C.ar         1    LIG   0.0000
   9 C9           2.6951     3.6721     4.8180 C.ar         1    LIG   0.0000
  10 C10          2.1157     4.9287     4.6778 C.ar         1    LIG   0.0000
  11 F11          1.7932     5.6291     5.7621 F            1    LIG   0.0000
  12 C12          1.8696     5.4607     3.4165 C.ar         1    LIG   0.0000
  13 C13          2.2050     4.7357     2.2787 C.ar         1    LIG   0.0000
  14 H           -1.1339     3.2629     2.2411 H            1    LIG   0.0000
  15 H           -1.2837     1.6368     2.2411 H            1    LIG   0.0000
  16 H           -0.0590     2.3439     3.0576 H            1    LIG   0.0000
  17 H           -0.3349     2.3693     0.1835 H            1    LIG   0.0000
  18 H            0.8898     3.0764     1.0000 H            1    LIG   0.0000
  19 H            0.5000     0.1340     1.0000 H            1    LIG   0.0000
  20 H            2.8000     0.1340     1.0000 H            1    LIG   0.0000
  21 H            3.4485     2.0406     3.7694 H            1    LIG   0.0000
  22 H            2.8685     3.2950     5.7277 H            1    LIG   0.0000
  23 H            1.4514     6.3647     3.3281 H            1    LIG   0.0000
  24 H            2.0314     5.1129     1.3690 H            1    LIG   0.0000
@<TRIPOS>BOND
   1        1        2 1
   2        2        3 1
   3        3        4 2
   4        4        5 1
   5        5        6 2
   6        5        7 1
   7        7        8 ar
   8        8        9 ar
   9        9       10 ar
  10       10       11 1
  11       10       12 ar
  12       12       13 ar
  13       13        7 ar
  14        1       14 1
  15        1       15 1
  16        1       16 1
  17        2       17 1
  18        2       18 1
  19        3       19 1
  20        4       20 1
  21        8       21 1
  22        9       22 1
  23       12       23 1
  24       13       24 1

@<TRIPOS>MOLECULE

  24   24
SMALL
USER_CHARGES
@<TRIPOS>ATOM
   1 C1          -0.6339     2.3969     2.2411 C.3          1    LIG   0.0000
   2 C2           0.2400     2.3164     1.0000 C.3          1    LIG   0.0000
   3 C3           1.0000     1.0000     1.0000 C.2          1    LIG   0.0000
   4 C4           2.3000     1.0000     1.0000 C.2          1    LIG   0.0000
   5 S5           3.2050     2.5675     1.0000 S.o          1    LIG   0.0000
   6 O6           4.5965     2.3376     0.5195 O.2          1    LIG   0.0000
   7 C7           3.2483     3.2122     2.6154 C.ar         1    LIG   0.0000
   8 C8           4.2962     2.8724     3.4652 C.ar         1    LIG   0.0000
   9 C9           4.3323     3.3859     4.7572 C.ar         1    LIG   0.0000
  10 C10          3.3165     4.2353     5.1826 C.ar         1    LIG   0.0000
  11 F11          3.3467     4.7302     6.4173 F            1    LIG   0.0000
  12 C12          2.2696     4.5726     4.3314 C.ar         1    LIG   0.0000
  13 C13          2.2317     4.0608     3.0393 C.ar         1    LIG   0.0000
  14 H           -1.1339     3.2629     2.2411 H            1    LIG   0.0000
  15 H           -1.2837     1.6368     2.2411 H            1    LIG   0.0000
  16 H           -0.0590     2.3439     3.0576 H            1    LIG   0.0000
  17 H           -0.3349     2.3693     0.1835 H            1    LIG   0.0000
  18 H            0.8898     3.0764     1.0000 H            1    LIG   0.0000
  19 H            0.5000     0.1340     1.0000 H            1    LIG   0.0000
  20 H            2.8000     0.1340     1.0000 H            1    LIG   0.0000
  21 H            5.0212     2.2610     3.1481 H            1    LIG   0.0000
  22 H            5.0817     3.1466     5.3745 H            1    LIG   0.0000
  23 H            1.5441     5.1833     4.6487 H            1    LIG   0.0000
  24 H            1.4822     4.3001     2.4221 H            1    LIG   0.0000
@<TRIPOS>BOND
   1        1        2 1
   2        2        3 1
   3        3        4 2
   4        4        5 1
   5        5        6 2
   6        5        7 1
   7        7        8 ar
   8        8        9 ar
   9        9       10 ar
  10       10       11 1
  11       10       12 ar
  12       12       13 ar
  13       13        7 ar
  14        1       14 1
  15        1       15 1
  16        1       16 1
  17        2       17 1
  18        2       18 1
  19        3       19 1
  20        4       20 1
  21        8       21 1
  22        9       22 1
  23       12       23 1
  24       13       24 1

