@<TRIPOS>MOLECULE
*****
 24 24 0 0 0
SMALL
USER_CHARGES

@<TRIPOS>ATOM
      1 C1         -0.6339    2.3969    2.2411 C.3     1  LIG1        0.0000
      2 C2          0.2400    2.3164    1.0000 C.3     1  LIG1        0.0000
      3 C3          1.0000    1.0000    1.0000 C.2     1  LIG1        0.0000
      4 C4          2.3000    1.0000    1.0000 C.2     1  LIG1        0.0000
      5 S5          3.2050    2.5675    1.0000 S.O     1  LIG1        0.0000
      6 O6          4.0616    2.6464   -0.2166 O.2     1  LIG1        0.0000
      7 C7          4.2052    2.6597    2.4205 C.3     1  LIG1        0.0000
      8 C8          5.5080    2.1728    2.3790 C.3     1  LIG1        0.0000
      9 C9          6.3089    2.2447    3.5136 C.3     1  LIG1        0.0000
     10 C10         5.7943    2.8047    4.6780 C.3     1  LIG1        0.0000
     11 F11         6.5566    2.8770    5.7661 F       1  LIG1        0.0000
     12 C12         4.4914    3.2899    4.7171 C.3     1  LIG1        0.0000
     13 C13         3.6890    3.2194    3.5839 C.3     1  LIG1        0.0000
     14 H          -1.1339    3.2629    2.2411 H       1  LIG1        0.0000
     15 H          -1.2837    1.6368    2.2411 H       1  LIG1        0.0000
     16 H          -0.0590    2.3439    3.0576 H       1  LIG1        0.0000
     17 H          -0.3349    2.3693    0.1835 H       1  LIG1        0.0000
     18 H           0.8898    3.0764    1.0000 H       1  LIG1        0.0000
     19 H           0.5000    0.1340    1.0000 H       1  LIG1        0.0000
     20 H           2.8000    0.1340    1.0000 H       1  LIG1        0.0000
     21 H           5.8672    1.7725    1.5360 H       1  LIG1        0.0000
     22 H           7.2463    1.8969    3.4925 H       1  LIG1        0.0000
     23 H           4.1317    3.6894    5.5603 H       1  LIG1        0.0000
     24 H           2.7516    3.5672    3.6053 H       1  LIG1        0.0000
@<TRIPOS>BOND
     1     1     2    1
     2     2     3    1
     3     3     4    2
     4     4     5    1
     5     5     6    2
     6     5     7    1
     7     7     8   ar
     8     8     9   ar
     9     9    10   ar
    10    10    11    1
    11    10    12   ar
    12    12    13   ar
    13    13     7   ar
    14     1    14    1
    15     1    15    1
    16     1    16    1
    17     2    17    1
    18     2    18    1
    19     3    19    1
    20     4    20    1
    21     8    21    1
    22     9    22    1
    23    12    23    1
    24    13    24    1
