@<TRIPOS>MOLECULE
*****
 24 24 0 0 0
SMALL
USER_CHARGES

@<TRIPOS>ATOM
      1 C1          0.6072    3.1134    2.2411 C.3     1  LIG1        0.0000
      2 C2          0.2400    2.3164    1.0000 C.3     1  LIG1        0.0000
      3 C3          1.0000    1.0000    1.0000 C.2     1  LIG1        0.0000
      4 C4          2.3000    1.0000    1.0000 C.2     1  LIG1        0.0000
      5 S5          3.2050    2.5675    1.0000 S.O     1  LIG1        0.0000
      6 O6          2.8450    3.3488   -0.2166 O.2     1  LIG1        0.0000
      7 C7          4.9155    2.2496    1.0000 C.3     1  LIG1        0.0000
      8 C8          5.7036    2.7178   -0.0467 C.3     1  LIG1        0.0000
      9 C9          7.0709    2.4640   -0.0492 C.3     1  LIG1        0.0000
     10 C10         7.6332    1.7434    0.9991 C.3     1  LIG1        0.0000
     11 F11         8.9410    1.4986    1.0023 F       1  LIG1        0.0000
     12 C12         6.8430    1.2757    2.0438 C.3     1  LIG1        0.0000
     13 C13         5.4759    1.5285    2.0485 C.3     1  LIG1        0.0000
     14 H           0.1072    3.9794    2.2411 H       1  LIG1        0.0000
     15 H           0.3656    2.5890    3.0576 H       1  LIG1        0.0000
     16 H           1.5904    3.2961    2.2411 H       1  LIG1        0.0000
     17 H          -0.7432    2.1336    1.0000 H       1  LIG1        0.0000
     18 H           0.4816    2.8407    0.1835 H       1  LIG1        0.0000
     19 H           0.5000    0.1340    1.0000 H       1  LIG1        0.0000
     20 H           2.8000    0.1340    1.0000 H       1  LIG1        0.0000
     21 H           5.2881    3.2351   -0.7948 H       1  LIG1        0.0000
     22 H           7.6446    2.7966   -0.7977 H       1  LIG1        0.0000
     23 H           7.2582    0.7576    2.7916 H       1  LIG1        0.0000
     24 H           4.9024    1.1958    2.7971 H       1  LIG1        0.0000
@<TRIPOS>BOND
     1     1     2    1
     2     2     3    1
     3     3     4    2
     4     4     5    1
     5     5     6    2
     6     5     7    1
     7     7     8   ar
     8     8     9   ar
     9     9    10   ar
    10    10    11    1
    11    10    12   ar
    12    12    13   ar
    13    13     7   ar
    14     1    14    1
    15     1    15    1
    16     1    16    1
    17     2    17    1
    18     2    18    1
    19     3    19    1
    20     4    20    1
    21     8    21    1
    22     9    22    1
    23    12    23    1
    24    13    24    1
