@<TRIPOS>MOLECULE
*****
 24 24 0 0 0
SMALL
USER_CHARGES

@<TRIPOS>ATOM
      1 C1          0.6072    3.1134    2.2411 C.3     1  LIG1        0.0000
      2 C2          0.2400    2.3164    1.0000 C.3     1  LIG1        0.0000
      3 C3          1.0000    1.0000    1.0000 C.2     1  LIG1        0.0000
      4 C4          2.3000    1.0000    1.0000 C.2     1  LIG1        0.0000
      5 S5          3.2050    2.5675    1.0000 S.O     1  LIG1        0.0000
      6 O6          2.3997    3.6059    0.2976 O.2     1  LIG1        0.0000
      7 C7          4.7252    2.3595    0.1799 C.3     1  LIG1        0.0000
      8 C8          4.7405    1.9581   -1.1522 C.3     1  LIG1        0.0000
      9 C9          5.9545    1.7903   -1.8095 C.3     1  LIG1        0.0000
     10 C10         7.1406    2.0275   -1.1231 C.3     1  LIG1        0.0000
     11 F11         8.3049    1.8696   -1.7474 F       1  LIG1        0.0000
     12 C12         7.1226    2.4278    0.2088 C.3     1  LIG1        0.0000
     13 C13         5.9101    2.5965    0.8677 C.3     1  LIG1        0.0000
     14 H           0.1072    3.9794    2.2411 H       1  LIG1        0.0000
     15 H           0.3656    2.5890    3.0576 H       1  LIG1        0.0000
     16 H           1.5904    3.2961    2.2411 H       1  LIG1        0.0000
     17 H          -0.7432    2.1336    1.0000 H       1  LIG1        0.0000
     18 H           0.4816    2.8407    0.1835 H       1  LIG1        0.0000
     19 H           0.5000    0.1340    1.0000 H       1  LIG1        0.0000
     20 H           2.8000    0.1340    1.0000 H       1  LIG1        0.0000
     21 H           3.8811    1.7908   -1.6356 H       1  LIG1        0.0000
     22 H           5.9744    1.5018   -2.7668 H       1  LIG1        0.0000
     23 H           7.9819    2.5943    0.6924 H       1  LIG1        0.0000
     24 H           5.8903    2.8850    1.8250 H       1  LIG1        0.0000
@<TRIPOS>BOND
     1     1     2    1
     2     2     3    1
     3     3     4    2
     4     4     5    1
     5     5     6    2
     6     5     7    1
     7     7     8   ar
     8     8     9   ar
     9     9    10   ar
    10    10    11    1
    11    10    12   ar
    12    12    13   ar
    13    13     7   ar
    14     1    14    1
    15     1    15    1
    16     1    16    1
    17     2    17    1
    18     2    18    1
    19     3    19    1
    20     4    20    1
    21     8    21    1
    22     9    22    1
    23    12    23    1
    24    13    24    1
