@<TRIPOS>MOLECULE
*****
 24 24 0 0 0
SMALL
USER_CHARGES

@<TRIPOS>ATOM
      1 C1          0.6072    3.1134    2.2411 C.3     1  LIG1        0.0000
      2 C2          0.2400    2.3164    1.0000 C.3     1  LIG1        0.0000
      3 C3          1.0000    1.0000    1.0000 C.2     1  LIG1        0.0000
      4 C4          2.3000    1.0000    1.0000 C.2     1  LIG1        0.0000
      5 S5          3.2050    2.5675    1.0000 S.O     1  LIG1        0.0000
      6 O6          3.2421    3.1196   -0.3834 O.2     1  LIG1        0.0000
      7 C7          4.8298    2.2991    1.5610 C.3     1  LIG1        0.0000
      8 C8          5.6627    1.4257    0.8686 C.3     1  LIG1        0.0000
      9 C9          6.9615    1.2089    1.3158 C.3     1  LIG1        0.0000
     10 C10         7.4112    1.8713    2.4531 C.3     1  LIG1        0.0000
     11 F11         8.6533    1.6684    2.8847 F       1  LIG1        0.0000
     12 C12         6.5764    2.7432    3.1439 C.3     1  LIG1        0.0000
     13 C13         5.2776    2.9617    2.6984 C.3     1  LIG1        0.0000
     14 H           0.1072    3.9794    2.2411 H       1  LIG1        0.0000
     15 H           0.3656    2.5890    3.0576 H       1  LIG1        0.0000
     16 H           1.5904    3.2961    2.2411 H       1  LIG1        0.0000
     17 H          -0.7432    2.1336    1.0000 H       1  LIG1        0.0000
     18 H           0.4816    2.8407    0.1835 H       1  LIG1        0.0000
     19 H           0.5000    0.1340    1.0000 H       1  LIG1        0.0000
     20 H           2.8000    0.1340    1.0000 H       1  LIG1        0.0000
     21 H           5.3283    0.9552    0.0520 H       1  LIG1        0.0000
     22 H           7.5666    0.5826    0.8243 H       1  LIG1        0.0000
     23 H           6.9103    3.2130    3.9611 H       1  LIG1        0.0000
     24 H           4.6727    3.5880    3.1902 H       1  LIG1        0.0000
@<TRIPOS>BOND
     1     1     2    1
     2     2     3    1
     3     3     4    2
     4     4     5    1
     5     5     6    2
     6     5     7    1
     7     7     8   ar
     8     8     9   ar
     9     9    10   ar
    10    10    11    1
    11    10    12   ar
    12    12    13   ar
    13    13     7   ar
    14     1    14    1
    15     1    15    1
    16     1    16    1
    17     2    17    1
    18     2    18    1
    19     3    19    1
    20     4    20    1
    21     8    21    1
    22     9    22    1
    23    12    23    1
    24    13    24    1
