@<TRIPOS>MOLECULE
*****
 24 24 0 0 0
SMALL
USER_CHARGES

@<TRIPOS>ATOM
      1 C1         -0.6339    2.3969    2.2411 C.3     1  LIG1        0.0000
      2 C2          0.2400    2.3164    1.0000 C.3     1  LIG1        0.0000
      3 C3          1.0000    1.0000    1.0000 C.2     1  LIG1        0.0000
      4 C4          2.3000    1.0000    1.0000 C.2     1  LIG1        0.0000
      5 S5          3.2050    2.5675    1.0000 S.O     1  LIG1        0.0000
      6 O6          2.5214    3.5357    0.0970 O.2     1  LIG1        0.0000
      7 C7          4.8298    2.2991    0.4390 C.3     1  LIG1        0.0000
      8 C8          5.0851    1.2775   -0.4705 C.3     1  LIG1        0.0000
      9 C9          6.3833    1.0606   -0.9195 C.3     1  LIG1        0.0000
     10 C10         7.4117    1.8714   -0.4515 C.3     1  LIG1        0.0000
     11 F11         8.6555    1.6690   -0.8786 F       1  LIG1        0.0000
     12 C12         7.1541    2.8914    0.4583 C.3     1  LIG1        0.0000
     13 C13         5.8569    3.1103    0.9083 C.3     1  LIG1        0.0000
     14 H          -1.1339    3.2629    2.2411 H       1  LIG1        0.0000
     15 H          -1.2837    1.6368    2.2411 H       1  LIG1        0.0000
     16 H          -0.0590    2.3439    3.0576 H       1  LIG1        0.0000
     17 H          -0.3349    2.3693    0.1835 H       1  LIG1        0.0000
     18 H           0.8898    3.0764    1.0000 H       1  LIG1        0.0000
     19 H           0.5000    0.1340    1.0000 H       1  LIG1        0.0000
     20 H           2.8000    0.1340    1.0000 H       1  LIG1        0.0000
     21 H           4.3374    0.7011   -0.8002 H       1  LIG1        0.0000
     22 H           6.5755    0.3284   -1.5729 H       1  LIG1        0.0000
     23 H           7.9018    3.4673    0.7888 H       1  LIG1        0.0000
     24 H           5.6649    3.8425    1.5617 H       1  LIG1        0.0000
@<TRIPOS>BOND
     1     1     2    1
     2     2     3    1
     3     3     4    2
     4     4     5    1
     5     5     6    2
     6     5     7    1
     7     7     8   ar
     8     8     9   ar
     9     9    10   ar
    10    10    11    1
    11    10    12   ar
    12    12    13   ar
    13    13     7   ar
    14     1    14    1
    15     1    15    1
    16     1    16    1
    17     2    17    1
    18     2    18    1
    19     3    19    1
    20     4    20    1
    21     8    21    1
    22     9    22    1
    23    12    23    1
    24    13    24    1
