@<TRIPOS>MOLECULE

  68   71
SMALL
USER_CHARGES
@<TRIPOS>ATOM
   1 C1          -1.8272     4.7087    -3.5715 C.3          1    LIG   0.0000
   2 N2          -2.3104     4.2829    -2.2501 N.pl3        1    LIG   0.0000
   3 C3          -3.6374     4.7069    -1.7810 C.3          1    LIG   0.0000
   4 C4          -1.5070     3.4738    -1.4387 C.ar         1    LIG   0.0000
   5 C5          -0.2566     3.0922    -1.9142 C.ar         1    LIG   0.0000
   6 C6           0.5537     2.2898    -1.1177 C.ar         1    LIG   0.0000
   7 C7           0.1093     1.8779     0.1348 C.ar         1    LIG   0.0000
   8 C8           1.0000     1.0000     1.0000 C.3          1    LIG   0.0000
   9 N9           1.8480     1.8480     1.8480 N.pl3        1    LIG   0.0000
  10 C10          1.5330     2.3063     3.0881 C.2          1    LIG   0.0000
  11 C11          0.3127     2.0507     3.8291 C.ar         1    LIG   0.0000
  12 C12         -0.6853     1.2669     3.2606 C.ar         1    LIG   0.0000
  13 C13         -1.8514     1.0268     3.9800 C.ar         1    LIG   0.0000
  14 C14         -2.0269     1.5602     5.2525 C.ar         1    LIG   0.0000
  15 C15         -1.0155     2.3411     5.8018 C.ar         1    LIG   0.0000
  16 S16         -1.2206     3.0154     7.3927 S.o2         1    LIG   0.0000
  17 C17         -1.9989     4.6443     7.2618 C.3          1    LIG   0.0000
  18 O18         -2.0570     2.1456     8.1786 O.2          1    LIG   0.0000
  19 O19          0.0651     3.1474     8.0275 O.2          1    LIG   0.0000
  20 C20          0.1587     2.5931     5.1003 C.ar         1    LIG   0.0000
  21 N21          2.5535     3.0182     3.4893 N.2          1    LIG   0.0000
  22 N22          3.4846     3.0419     2.5523 N.2          1    LIG   0.0000
  23 C23          3.0838     2.3239     1.5302 C.2          1    LIG   0.0000
  24 N24          3.7906     2.0937     0.3447 N.pl3        1    LIG   0.0000
  25 C25          5.1232     2.6851     0.1568 C.3          1    LIG   0.0000
  26 C26          3.2004     1.2606    -0.7129 C.3          1    LIG   0.0000
  27 C27          3.7894    -0.1388    -0.6434 C.3          1    LIG   0.0000
  28 C28          3.1887    -1.0136    -1.7318 C.3          1    LIG   0.0000
  29 C29          3.7823    -2.4115    -1.6638 C.3          1    LIG   0.0000
  30 C30          5.2933    -2.3538    -1.8241 C.3          1    LIG   0.0000
  31 C31          5.8870    -1.4793    -0.7308 C.3          1    LIG   0.0000
  32 C32          5.3009    -0.0781    -0.7944 C.3          1    LIG   0.0000
  33 C33         -1.1510     2.2924     0.5540 C.ar         1    LIG   0.0000
  34 N34         -1.9175     3.0674    -0.2277 N.ar         1    LIG   0.0000
  35 H           -2.5215     5.2770    -4.0130 H            1    LIG   0.0000
  36 H           -0.9841     5.2356    -3.4642 H            1    LIG   0.0000
  37 H           -1.6473     3.9032    -4.1361 H            1    LIG   0.0000
  38 H           -4.0719     5.2754    -2.4796 H            1    LIG   0.0000
  39 H           -4.2032     3.9006    -1.6081 H            1    LIG   0.0000
  40 H           -3.5400     5.2330    -0.9362 H            1    LIG   0.0000
  41 H            0.0554     3.3906    -2.8162 H            1    LIG   0.0000
  42 H            1.4558     2.0089    -1.4454 H            1    LIG   0.0000
  43 H            0.4311     0.4143     1.5773 H            1    LIG   0.0000
  44 H            1.5773     0.4311     0.4143 H            1    LIG   0.0000
  45 H           -0.5661     0.8807     2.3459 H            1    LIG   0.0000
  46 H           -2.5727     0.4635     3.5771 H            1    LIG   0.0000
  47 H           -2.8677     1.3848     5.7647 H            1    LIG   0.0000
  48 H           -1.4181     5.2484     6.7161 H            1    LIG   0.0000
  49 H           -2.8918     4.5527     6.8210 H            1    LIG   0.0000
  50 H           -2.1168     5.0319     8.1761 H            1    LIG   0.0000
  51 H            0.8806     3.1553     5.5036 H            1    LIG   0.0000
  52 H            5.4818     2.4211    -0.7386 H            1    LIG   0.0000
  53 H            5.0560     3.6815     0.2084 H            1    LIG   0.0000
  54 H            5.7383     2.3549     0.8728 H            1    LIG   0.0000
  55 H            3.4020     1.6631    -1.6059 H            1    LIG   0.0000
  56 H            2.2098     1.2120    -0.5852 H            1    LIG   0.0000
  57 H            3.5703    -0.5367     0.2475 H            1    LIG   0.0000
  58 H            3.3877    -0.6128    -2.6260 H            1    LIG   0.0000
  59 H            2.1984    -1.0680    -1.6037 H            1    LIG   0.0000
  60 H            3.3942    -2.9703    -2.3966 H            1    LIG   0.0000
  61 H            3.5602    -2.8211    -0.7790 H            1    LIG   0.0000
  62 H            5.5189    -1.9680    -2.7187 H            1    LIG   0.0000
  63 H            5.6712    -3.2770    -1.7543 H            1    LIG   0.0000
  64 H            5.6814    -1.8821     0.1611 H            1    LIG   0.0000
  65 H            6.8782    -1.4275    -0.8526 H            1    LIG   0.0000
  66 H            5.6855     0.4754    -0.0557 H            1    LIG   0.0000
  67 H            5.5293     0.3366    -1.6753 H            1    LIG   0.0000
  68 H           -1.4903     2.0084     1.4509 H            1    LIG   0.0000
@<TRIPOS>BOND
   1        1        2 1
   2        2        3 1
   3        2        4 1
   4        4        5 ar
   5        5        6 ar
   6        6        7 ar
   7        7        8 1
   8        8        9 1
   9        9       10 1
  10       10       11 1
  11       11       12 ar
  12       12       13 ar
  13       13       14 ar
  14       14       15 ar
  15       15       16 1
  16       16       17 1
  17       16       18 2
  18       16       19 2
  19       15       20 ar
  20       20       11 ar
  21       10       21 2
  22       21       22 1
  23       22       23 2
  24       23        9 1
  25       23       24 1
  26       24       25 1
  27       24       26 1
  28       26       27 1
  29       27       28 1
  30       28       29 1
  31       29       30 1
  32       30       31 1
  33       31       32 1
  34       32       27 1
  35        7       33 ar
  36       33       34 ar
  37       34        4 ar
  38        1       35 1
  39        1       36 1
  40        1       37 1
  41        3       38 1
  42        3       39 1
  43        3       40 1
  44        5       41 1
  45        6       42 1
  46        8       43 1
  47        8       44 1
  48       12       45 1
  49       13       46 1
  50       14       47 1
  51       17       48 1
  52       17       49 1
  53       17       50 1
  54       20       51 1
  55       25       52 1
  56       25       53 1
  57       25       54 1
  58       26       55 1
  59       26       56 1
  60       27       57 1
  61       28       58 1
  62       28       59 1
  63       29       60 1
  64       29       61 1
  65       30       62 1
  66       30       63 1
  67       31       64 1
  68       31       65 1
  69       32       66 1
  70       32       67 1
  71       33       68 1

@<TRIPOS>MOLECULE

  68   71
SMALL
USER_CHARGES
@<TRIPOS>ATOM
   1 C1          -3.2763     3.6243    -3.1800 C.3          1    LIG   0.0000
   2 N2          -2.3372     4.2606    -2.2451 N.pl3        1    LIG   0.0000
   3 C3          -2.2675     5.7263    -2.1570 C.3          1    LIG   0.0000
   4 C4          -1.5095     3.4710    -1.4389 C.ar         1    LIG   0.0000
   5 C5          -1.6016     2.0873    -1.5491 C.ar         1    LIG   0.0000
   6 C6          -0.7836     1.2898    -0.7556 C.ar         1    LIG   0.0000
   7 C7           0.1093     1.8779     0.1348 C.ar         1    LIG   0.0000
   8 C8           1.0000     1.0000     1.0000 C.3          1    LIG   0.0000
   9 N9           1.8480     1.8480     1.8480 N.pl3        1    LIG   0.0000
  10 C10          1.5330     2.3063     3.0881 C.2          1    LIG   0.0000
  11 C11          0.3127     2.0507     3.8291 C.ar         1    LIG   0.0000
  12 C12         -0.6853     1.2669     3.2606 C.ar         1    LIG   0.0000
  13 C13         -1.8514     1.0268     3.9800 C.ar         1    LIG   0.0000
  14 C14         -2.0269     1.5602     5.2525 C.ar         1    LIG   0.0000
  15 C15         -1.0155     2.3411     5.8018 C.ar         1    LIG   0.0000
  16 S16         -1.2206     3.0154     7.3927 S.o2         1    LIG   0.0000
  17 C17         -1.9989     4.6443     7.2618 C.3          1    LIG   0.0000
  18 O18         -2.0570     2.1456     8.1786 O.2          1    LIG   0.0000
  19 O19          0.0651     3.1474     8.0275 O.2          1    LIG   0.0000
  20 C20          0.1587     2.5931     5.1003 C.ar         1    LIG   0.0000
  21 N21          2.5535     3.0182     3.4893 N.2          1    LIG   0.0000
  22 N22          3.4846     3.0419     2.5523 N.2          1    LIG   0.0000
  23 C23          3.0838     2.3239     1.5302 C.2          1    LIG   0.0000
  24 N24          3.7906     2.0937     0.3447 N.pl3        1    LIG   0.0000
  25 C25          5.1232     2.6851     0.1568 C.3          1    LIG   0.0000
  26 C26          3.2004     1.2606    -0.7129 C.3          1    LIG   0.0000
  27 C27          2.2046     2.0856    -1.5114 C.3          1    LIG   0.0000
  28 C28          2.9031     3.2770    -2.1467 C.3          1    LIG   0.0000
  29 C29          1.9067     4.0985    -2.9488 C.3          1    LIG   0.0000
  30 C30          1.2620     3.2432    -4.0280 C.3          1    LIG   0.0000
  31 C31          0.5635     2.0554    -3.3850 C.3          1    LIG   0.0000
  32 C32          1.5543     1.2264    -2.5837 C.3          1    LIG   0.0000
  33 C33          0.1543     3.2671     0.1992 C.ar         1    LIG   0.0000
  34 N34         -0.6415     4.0194    -0.5753 N.ar         1    LIG   0.0000
  35 H           -3.7853     4.3299    -3.6730 H            1    LIG   0.0000
  36 H           -2.7677     3.0628    -3.8327 H            1    LIG   0.0000
  37 H           -3.9146     3.0474    -2.6703 H            1    LIG   0.0000
  38 H           -2.9213     6.1302    -2.7968 H            1    LIG   0.0000
  39 H           -2.4902     6.0153    -1.2259 H            1    LIG   0.0000
  40 H           -1.3434     6.0306    -2.3883 H            1    LIG   0.0000
  41 H           -2.2469     1.6717    -2.1901 H            1    LIG   0.0000
  42 H           -0.8373     0.2937    -0.8250 H            1    LIG   0.0000
  43 H            0.4311     0.4143     1.5773 H            1    LIG   0.0000
  44 H            1.5773     0.4311     0.4143 H            1    LIG   0.0000
  45 H           -0.5661     0.8807     2.3459 H            1    LIG   0.0000
  46 H           -2.5727     0.4635     3.5771 H            1    LIG   0.0000
  47 H           -2.8677     1.3848     5.7647 H            1    LIG   0.0000
  48 H           -1.4181     5.2484     6.7161 H            1    LIG   0.0000
  49 H           -2.8918     4.5527     6.8210 H            1    LIG   0.0000
  50 H           -2.1168     5.0319     8.1761 H            1    LIG   0.0000
  51 H            0.8806     3.1553     5.5036 H            1    LIG   0.0000
  52 H            5.4818     2.4211    -0.7386 H            1    LIG   0.0000
  53 H            5.0560     3.6815     0.2084 H            1    LIG   0.0000
  54 H            5.7383     2.3549     0.8728 H            1    LIG   0.0000
  55 H            2.7312     0.4802    -0.2996 H            1    LIG   0.0000
  56 H            3.9234     0.9313    -1.3203 H            1    LIG   0.0000
  57 H            1.4944     2.4209    -0.8925 H            1    LIG   0.0000
  58 H            3.6277     2.9507    -2.7538 H            1    LIG   0.0000
  59 H            3.3015     3.8483    -1.4292 H            1    LIG   0.0000
  60 H            2.3823     4.8667    -3.3774 H            1    LIG   0.0000
  61 H            1.1970     4.4459    -2.3359 H            1    LIG   0.0000
  62 H            1.9660     2.9148    -4.6578 H            1    LIG   0.0000
  63 H            0.5934     3.7904    -4.5316 H            1    LIG   0.0000
  64 H           -0.1568     2.3872    -2.7758 H            1    LIG   0.0000
  65 H            0.1589     1.4848    -4.0997 H            1    LIG   0.0000
  66 H            1.0739     0.4637    -2.1506 H            1    LIG   0.0000
  67 H            2.2602     0.8709    -3.1964 H            1    LIG   0.0000
  68 H            0.7890     3.7109     0.8319 H            1    LIG   0.0000
@<TRIPOS>BOND
   1        1        2 1
   2        2        3 1
   3        2        4 1
   4        4        5 ar
   5        5        6 ar
   6        6        7 ar
   7        7        8 1
   8        8        9 1
   9        9       10 1
  10       10       11 1
  11       11       12 ar
  12       12       13 ar
  13       13       14 ar
  14       14       15 ar
  15       15       16 1
  16       16       17 1
  17       16       18 2
  18       16       19 2
  19       15       20 ar
  20       20       11 ar
  21       10       21 2
  22       21       22 1
  23       22       23 2
  24       23        9 1
  25       23       24 1
  26       24       25 1
  27       24       26 1
  28       26       27 1
  29       27       28 1
  30       28       29 1
  31       29       30 1
  32       30       31 1
  33       31       32 1
  34       32       27 1
  35        7       33 ar
  36       33       34 ar
  37       34        4 ar
  38        1       35 1
  39        1       36 1
  40        1       37 1
  41        3       38 1
  42        3       39 1
  43        3       40 1
  44        5       41 1
  45        6       42 1
  46        8       43 1
  47        8       44 1
  48       12       45 1
  49       13       46 1
  50       14       47 1
  51       17       48 1
  52       17       49 1
  53       17       50 1
  54       20       51 1
  55       25       52 1
  56       25       53 1
  57       25       54 1
  58       26       55 1
  59       26       56 1
  60       27       57 1
  61       28       58 1
  62       28       59 1
  63       29       60 1
  64       29       61 1
  65       30       62 1
  66       30       63 1
  67       31       64 1
  68       31       65 1
  69       32       66 1
  70       32       67 1
  71       33       68 1

@<TRIPOS>MOLECULE

  68   71
SMALL
USER_CHARGES
@<TRIPOS>ATOM
   1 C1          -1.8272     4.7087    -3.5715 C.3          1    LIG   0.0000
   2 N2          -2.3104     4.2829    -2.2501 N.pl3        1    LIG   0.0000
   3 C3          -3.6374     4.7069    -1.7810 C.3          1    LIG   0.0000
   4 C4          -1.5070     3.4738    -1.4387 C.ar         1    LIG   0.0000
   5 C5          -0.2566     3.0922    -1.9142 C.ar         1    LIG   0.0000
   6 C6           0.5537     2.2898    -1.1177 C.ar         1    LIG   0.0000
   7 C7           0.1093     1.8779     0.1348 C.ar         1    LIG   0.0000
   8 C8           1.0000     1.0000     1.0000 C.3          1    LIG   0.0000
   9 N9           1.8480     1.8480     1.8480 N.pl3        1    LIG   0.0000
  10 C10          1.5330     2.3063     3.0881 C.2          1    LIG   0.0000
  11 C11          0.3127     2.0507     3.8291 C.ar         1    LIG   0.0000
  12 C12         -0.6853     1.2669     3.2606 C.ar         1    LIG   0.0000
  13 C13         -1.8514     1.0268     3.9800 C.ar         1    LIG   0.0000
  14 C14         -2.0269     1.5602     5.2525 C.ar         1    LIG   0.0000
  15 C15         -1.0155     2.3411     5.8018 C.ar         1    LIG   0.0000
  16 S16         -1.2206     3.0154     7.3927 S.o2         1    LIG   0.0000
  17 C17         -1.9989     4.6443     7.2618 C.3          1    LIG   0.0000
  18 O18         -2.0570     2.1456     8.1786 O.2          1    LIG   0.0000
  19 O19          0.0651     3.1474     8.0275 O.2          1    LIG   0.0000
  20 C20          0.1587     2.5931     5.1003 C.ar         1    LIG   0.0000
  21 N21          2.5535     3.0182     3.4893 N.2          1    LIG   0.0000
  22 N22          3.4846     3.0419     2.5523 N.2          1    LIG   0.0000
  23 C23          3.0838     2.3239     1.5302 C.2          1    LIG   0.0000
  24 N24          3.7906     2.0937     0.3447 N.pl3        1    LIG   0.0000
  25 C25          4.6937     0.9386     0.2399 C.3          1    LIG   0.0000
  26 C26          3.6299     3.0070    -0.7960 C.3          1    LIG   0.0000
  27 C27          4.8010     3.9747    -0.8390 C.3          1    LIG   0.0000
  28 C28          4.6496     4.9269    -2.0143 C.3          1    LIG   0.0000
  29 C29          5.8193     5.8971    -2.0531 C.3          1    LIG   0.0000
  30 C30          5.8957     6.6871    -0.7561 C.3          1    LIG   0.0000
  31 C31          6.0495     5.7284     0.4142 C.3          1    LIG   0.0000
  32 C32          4.8813     4.7568     0.4622 C.3          1    LIG   0.0000
  33 C33         -1.1510     2.2924     0.5540 C.ar         1    LIG   0.0000
  34 N34         -1.9175     3.0674    -0.2277 N.ar         1    LIG   0.0000
  35 H           -2.5215     5.2770    -4.0130 H            1    LIG   0.0000
  36 H           -0.9841     5.2356    -3.4642 H            1    LIG   0.0000
  37 H           -1.6473     3.9032    -4.1361 H            1    LIG   0.0000
  38 H           -4.0719     5.2754    -2.4796 H            1    LIG   0.0000
  39 H           -4.2032     3.9006    -1.6081 H            1    LIG   0.0000
  40 H           -3.5400     5.2330    -0.9362 H            1    LIG   0.0000
  41 H            0.0554     3.3906    -2.8162 H            1    LIG   0.0000
  42 H            1.4558     2.0089    -1.4454 H            1    LIG   0.0000
  43 H            0.4311     0.4143     1.5773 H            1    LIG   0.0000
  44 H            1.5773     0.4311     0.4143 H            1    LIG   0.0000
  45 H           -0.5661     0.8807     2.3459 H            1    LIG   0.0000
  46 H           -2.5727     0.4635     3.5771 H            1    LIG   0.0000
  47 H           -2.8677     1.3848     5.7647 H            1    LIG   0.0000
  48 H           -1.4181     5.2484     6.7161 H            1    LIG   0.0000
  49 H           -2.8918     4.5527     6.8210 H            1    LIG   0.0000
  50 H           -2.1168     5.0319     8.1761 H            1    LIG   0.0000
  51 H            0.8806     3.1553     5.5036 H            1    LIG   0.0000
  52 H            5.1140     0.9253    -0.6675 H            1    LIG   0.0000
  53 H            5.4074     1.0092     0.9368 H            1    LIG   0.0000
  54 H            4.1742     0.0956     0.3790 H            1    LIG   0.0000
  55 H            2.7773     3.5197    -0.6949 H            1    LIG   0.0000
  56 H            3.6026     2.4788    -1.6446 H            1    LIG   0.0000
  57 H            5.6462     3.4528    -0.9539 H            1    LIG   0.0000
  58 H            3.7970     5.4402    -1.9166 H            1    LIG   0.0000
  59 H            4.6269     4.4017    -2.8649 H            1    LIG   0.0000
  60 H            5.6973     6.5299    -2.8177 H            1    LIG   0.0000
  61 H            6.6688     5.3843    -2.1771 H            1    LIG   0.0000
  62 H            5.0580     7.2211    -0.6415 H            1    LIG   0.0000
  63 H            6.6824     7.3036    -0.7874 H            1    LIG   0.0000
  64 H            6.9010     5.2146     0.3093 H            1    LIG   0.0000
  65 H            6.0784     6.2510     1.2663 H            1    LIG   0.0000
  66 H            5.0106     4.1210     1.2231 H            1    LIG   0.0000
  67 H            4.0316     5.2671     0.5947 H            1    LIG   0.0000
  68 H           -1.4903     2.0084     1.4509 H            1    LIG   0.0000
@<TRIPOS>BOND
   1        1        2 1
   2        2        3 1
   3        2        4 1
   4        4        5 ar
   5        5        6 ar
   6        6        7 ar
   7        7        8 1
   8        8        9 1
   9        9       10 1
  10       10       11 1
  11       11       12 ar
  12       12       13 ar
  13       13       14 ar
  14       14       15 ar
  15       15       16 1
  16       16       17 1
  17       16       18 2
  18       16       19 2
  19       15       20 ar
  20       20       11 ar
  21       10       21 2
  22       21       22 1
  23       22       23 2
  24       23        9 1
  25       23       24 1
  26       24       25 1
  27       24       26 1
  28       26       27 1
  29       27       28 1
  30       28       29 1
  31       29       30 1
  32       30       31 1
  33       31       32 1
  34       32       27 1
  35        7       33 ar
  36       33       34 ar
  37       34        4 ar
  38        1       35 1
  39        1       36 1
  40        1       37 1
  41        3       38 1
  42        3       39 1
  43        3       40 1
  44        5       41 1
  45        6       42 1
  46        8       43 1
  47        8       44 1
  48       12       45 1
  49       13       46 1
  50       14       47 1
  51       17       48 1
  52       17       49 1
  53       17       50 1
  54       20       51 1
  55       25       52 1
  56       25       53 1
  57       25       54 1
  58       26       55 1
  59       26       56 1
  60       27       57 1
  61       28       58 1
  62       28       59 1
  63       29       60 1
  64       29       61 1
  65       30       62 1
  66       30       63 1
  67       31       64 1
  68       31       65 1
  69       32       66 1
  70       32       67 1
  71       33       68 1

@<TRIPOS>MOLECULE

  68   71
SMALL
USER_CHARGES
@<TRIPOS>ATOM
   1 C1          -1.8272     4.7087    -3.5715 C.3          1    LIG   0.0000
   2 N2          -2.3104     4.2829    -2.2501 N.pl3        1    LIG   0.0000
   3 C3          -3.6374     4.7069    -1.7810 C.3          1    LIG   0.0000
   4 C4          -1.5070     3.4738    -1.4387 C.ar         1    LIG   0.0000
   5 C5          -0.2566     3.0922    -1.9142 C.ar         1    LIG   0.0000
   6 C6           0.5537     2.2898    -1.1177 C.ar         1    LIG   0.0000
   7 C7           0.1093     1.8779     0.1348 C.ar         1    LIG   0.0000
   8 C8           1.0000     1.0000     1.0000 C.3          1    LIG   0.0000
   9 N9           1.8480     1.8480     1.8480 N.pl3        1    LIG   0.0000
  10 C10          1.5330     2.3063     3.0881 C.2          1    LIG   0.0000
  11 C11          0.3127     2.0507     3.8291 C.ar         1    LIG   0.0000
  12 C12         -0.6853     1.2669     3.2606 C.ar         1    LIG   0.0000
  13 C13         -1.8514     1.0268     3.9800 C.ar         1    LIG   0.0000
  14 C14         -2.0269     1.5602     5.2525 C.ar         1    LIG   0.0000
  15 C15         -1.0155     2.3411     5.8018 C.ar         1    LIG   0.0000
  16 S16         -1.2206     3.0154     7.3927 S.o2         1    LIG   0.0000
  17 C17         -1.9989     4.6443     7.2618 C.3          1    LIG   0.0000
  18 O18         -2.0570     2.1456     8.1786 O.2          1    LIG   0.0000
  19 O19          0.0651     3.1474     8.0275 O.2          1    LIG   0.0000
  20 C20          0.1587     2.5931     5.1003 C.ar         1    LIG   0.0000
  21 N21          2.5535     3.0182     3.4893 N.2          1    LIG   0.0000
  22 N22          3.4846     3.0419     2.5523 N.2          1    LIG   0.0000
  23 C23          3.0838     2.3239     1.5302 C.2          1    LIG   0.0000
  24 N24          3.7906     2.0937     0.3447 N.pl3        1    LIG   0.0000
  25 C25          4.6937     0.9386     0.2399 C.3          1    LIG   0.0000
  26 C26          3.6299     3.0070    -0.7960 C.3          1    LIG   0.0000
  27 C27          2.4745     3.9567    -0.5257 C.3          1    LIG   0.0000
  28 C28          2.7486     4.7697     0.7292 C.3          1    LIG   0.0000
  29 C29          1.5942     5.7224     0.9954 C.3          1    LIG   0.0000
  30 C30          1.3926     6.6545    -0.1888 C.3          1    LIG   0.0000
  31 C31          1.1166     5.8345    -1.4394 C.3          1    LIG   0.0000
  32 C32          2.2685     4.8814    -1.7147 C.3          1    LIG   0.0000
  33 C33         -1.1510     2.2924     0.5540 C.ar         1    LIG   0.0000
  34 N34         -1.9175     3.0674    -0.2277 N.ar         1    LIG   0.0000
  35 H           -2.5215     5.2770    -4.0130 H            1    LIG   0.0000
  36 H           -0.9841     5.2356    -3.4642 H            1    LIG   0.0000
  37 H           -1.6473     3.9032    -4.1361 H            1    LIG   0.0000
  38 H           -4.0719     5.2754    -2.4796 H            1    LIG   0.0000
  39 H           -4.2032     3.9006    -1.6081 H            1    LIG   0.0000
  40 H           -3.5400     5.2330    -0.9362 H            1    LIG   0.0000
  41 H            0.0554     3.3906    -2.8162 H            1    LIG   0.0000
  42 H            1.4558     2.0089    -1.4454 H            1    LIG   0.0000
  43 H            0.4311     0.4143     1.5773 H            1    LIG   0.0000
  44 H            1.5773     0.4311     0.4143 H            1    LIG   0.0000
  45 H           -0.5661     0.8807     2.3459 H            1    LIG   0.0000
  46 H           -2.5727     0.4635     3.5771 H            1    LIG   0.0000
  47 H           -2.8677     1.3848     5.7647 H            1    LIG   0.0000
  48 H           -1.4181     5.2484     6.7161 H            1    LIG   0.0000
  49 H           -2.8918     4.5527     6.8210 H            1    LIG   0.0000
  50 H           -2.1168     5.0319     8.1761 H            1    LIG   0.0000
  51 H            0.8806     3.1553     5.5036 H            1    LIG   0.0000
  52 H            5.1140     0.9253    -0.6675 H            1    LIG   0.0000
  53 H            5.4074     1.0092     0.9368 H            1    LIG   0.0000
  54 H            4.1742     0.0956     0.3790 H            1    LIG   0.0000
  55 H            3.4397     2.4775    -1.6227 H            1    LIG   0.0000
  56 H            4.4709     3.5328    -0.9230 H            1    LIG   0.0000
  57 H            1.6422     3.4202    -0.3867 H            1    LIG   0.0000
  58 H            3.5900     5.2958     0.6056 H            1    LIG   0.0000
  59 H            2.8535     4.1512     1.5079 H            1    LIG   0.0000
  60 H            1.7959     6.2647     1.8110 H            1    LIG   0.0000
  61 H            0.7585     5.1939     1.1449 H            1    LIG   0.0000
  62 H            2.2175     7.2029    -0.3254 H            1    LIG   0.0000
  63 H            0.6165     7.2589    -0.0088 H            1    LIG   0.0000
  64 H            0.2770     5.3072    -1.3088 H            1    LIG   0.0000
  65 H            1.0054     6.4505    -2.2192 H            1    LIG   0.0000
  66 H            2.0600     4.3357    -2.5263 H            1    LIG   0.0000
  67 H            3.1036     5.4084    -1.8728 H            1    LIG   0.0000
  68 H           -1.4903     2.0084     1.4509 H            1    LIG   0.0000
@<TRIPOS>BOND
   1        1        2 1
   2        2        3 1
   3        2        4 1
   4        4        5 ar
   5        5        6 ar
   6        6        7 ar
   7        7        8 1
   8        8        9 1
   9        9       10 1
  10       10       11 1
  11       11       12 ar
  12       12       13 ar
  13       13       14 ar
  14       14       15 ar
  15       15       16 1
  16       16       17 1
  17       16       18 2
  18       16       19 2
  19       15       20 ar
  20       20       11 ar
  21       10       21 2
  22       21       22 1
  23       22       23 2
  24       23        9 1
  25       23       24 1
  26       24       25 1
  27       24       26 1
  28       26       27 1
  29       27       28 1
  30       28       29 1
  31       29       30 1
  32       30       31 1
  33       31       32 1
  34       32       27 1
  35        7       33 ar
  36       33       34 ar
  37       34        4 ar
  38        1       35 1
  39        1       36 1
  40        1       37 1
  41        3       38 1
  42        3       39 1
  43        3       40 1
  44        5       41 1
  45        6       42 1
  46        8       43 1
  47        8       44 1
  48       12       45 1
  49       13       46 1
  50       14       47 1
  51       17       48 1
  52       17       49 1
  53       17       50 1
  54       20       51 1
  55       25       52 1
  56       25       53 1
  57       25       54 1
  58       26       55 1
  59       26       56 1
  60       27       57 1
  61       28       58 1
  62       28       59 1
  63       29       60 1
  64       29       61 1
  65       30       62 1
  66       30       63 1
  67       31       64 1
  68       31       65 1
  69       32       66 1
  70       32       67 1
  71       33       68 1

@<TRIPOS>MOLECULE

  68   71
SMALL
USER_CHARGES
@<TRIPOS>ATOM
   1 C1          -3.6659     4.6634    -1.7623 C.3          1    LIG   0.0000
   2 N2          -2.3372     4.2606    -2.2451 N.pl3        1    LIG   0.0000
   3 C3          -1.8778     4.6873    -3.5747 C.3          1    LIG   0.0000
   4 C4          -1.5095     3.4710    -1.4389 C.ar         1    LIG   0.0000
   5 C5          -1.6016     2.0873    -1.5491 C.ar         1    LIG   0.0000
   6 C6          -0.7836     1.2898    -0.7556 C.ar         1    LIG   0.0000
   7 C7           0.1093     1.8779     0.1348 C.ar         1    LIG   0.0000
   8 C8           1.0000     1.0000     1.0000 C.3          1    LIG   0.0000
   9 N9           1.8480     1.8480     1.8480 N.pl3        1    LIG   0.0000
  10 C10          1.5330     2.3063     3.0881 C.2          1    LIG   0.0000
  11 C11          0.3127     2.0507     3.8291 C.ar         1    LIG   0.0000
  12 C12         -0.6853     1.2669     3.2606 C.ar         1    LIG   0.0000
  13 C13         -1.8514     1.0268     3.9800 C.ar         1    LIG   0.0000
  14 C14         -2.0269     1.5602     5.2525 C.ar         1    LIG   0.0000
  15 C15         -1.0155     2.3411     5.8018 C.ar         1    LIG   0.0000
  16 S16         -1.2206     3.0154     7.3927 S.o2         1    LIG   0.0000
  17 C17         -1.9989     4.6443     7.2618 C.3          1    LIG   0.0000
  18 O18         -2.0570     2.1456     8.1786 O.2          1    LIG   0.0000
  19 O19          0.0651     3.1474     8.0275 O.2          1    LIG   0.0000
  20 C20          0.1587     2.5931     5.1003 C.ar         1    LIG   0.0000
  21 N21          2.5535     3.0182     3.4893 N.2          1    LIG   0.0000
  22 N22          3.4846     3.0419     2.5523 N.2          1    LIG   0.0000
  23 C23          3.0838     2.3239     1.5302 C.2          1    LIG   0.0000
  24 N24          3.7906     2.0937     0.3447 N.pl3        1    LIG   0.0000
  25 C25          3.6299     3.0070    -0.7960 C.3          1    LIG   0.0000
  26 C26          4.6937     0.9386     0.2399 C.3          1    LIG   0.0000
  27 C27          3.8859    -0.3457     0.3276 C.3          1    LIG   0.0000
  28 C28          3.1472    -0.4092     1.6548 C.3          1    LIG   0.0000
  29 C29          2.3361    -1.6921     1.7390 C.3          1    LIG   0.0000
  30 C30          1.3414    -1.7663     0.5913 C.3          1    LIG   0.0000
  31 C31          2.0875    -1.7048    -0.7323 C.3          1    LIG   0.0000
  32 C32          2.8986    -0.4225    -0.8258 C.3          1    LIG   0.0000
  33 C33          0.1543     3.2671     0.1992 C.ar         1    LIG   0.0000
  34 N34         -0.6415     4.0194    -0.5753 N.ar         1    LIG   0.0000
  35 H           -4.1191     5.2198    -2.4587 H            1    LIG   0.0000
  36 H           -4.2148     3.8481    -1.5779 H            1    LIG   0.0000
  37 H           -3.5678     5.1962    -0.9218 H            1    LIG   0.0000
  38 H           -2.5876     5.2403    -4.0110 H            1    LIG   0.0000
  39 H           -1.0431     5.2300    -3.4807 H            1    LIG   0.0000
  40 H           -1.6902     3.8818    -4.1368 H            1    LIG   0.0000
  41 H           -2.2469     1.6717    -2.1901 H            1    LIG   0.0000
  42 H           -0.8373     0.2937    -0.8250 H            1    LIG   0.0000
  43 H            0.4311     0.4143     1.5773 H            1    LIG   0.0000
  44 H            1.5773     0.4311     0.4143 H            1    LIG   0.0000
  45 H           -0.5661     0.8807     2.3459 H            1    LIG   0.0000
  46 H           -2.5727     0.4635     3.5771 H            1    LIG   0.0000
  47 H           -2.8677     1.3848     5.7647 H            1    LIG   0.0000
  48 H           -1.4181     5.2484     6.7161 H            1    LIG   0.0000
  49 H           -2.8918     4.5527     6.8210 H            1    LIG   0.0000
  50 H           -2.1168     5.0319     8.1761 H            1    LIG   0.0000
  51 H            0.8806     3.1553     5.5036 H            1    LIG   0.0000
  52 H            4.2028     2.6968    -1.5546 H            1    LIG   0.0000
  53 H            2.6722     3.0159    -1.0835 H            1    LIG   0.0000
  54 H            3.9054     3.9295    -0.5257 H            1    LIG   0.0000
  55 H            5.3582     0.9662     0.9867 H            1    LIG   0.0000
  56 H            5.1752     0.9704    -0.6360 H            1    LIG   0.0000
  57 H            4.5109    -1.1241     0.2692 H            1    LIG   0.0000
  58 H            2.5329     0.3763     1.7294 H            1    LIG   0.0000
  59 H            3.8096    -0.3867     2.4036 H            1    LIG   0.0000
  60 H            1.8399    -1.7118     2.6069 H            1    LIG   0.0000
  61 H            2.9543    -2.4766     1.6905 H            1    LIG   0.0000
  62 H            0.7054    -0.9969     0.6514 H            1    LIG   0.0000
  63 H            0.8319    -2.6250     0.6470 H            1    LIG   0.0000
  64 H            2.7035    -2.4897    -0.7998 H            1    LIG   0.0000
  65 H            1.4282    -1.7329    -1.4836 H            1    LIG   0.0000
  66 H            3.3992    -0.4098    -1.6914 H            1    LIG   0.0000
  67 H            2.2813     0.3633    -0.7862 H            1    LIG   0.0000
  68 H            0.7890     3.7109     0.8319 H            1    LIG   0.0000
@<TRIPOS>BOND
   1        1        2 1
   2        2        3 1
   3        2        4 1
   4        4        5 ar
   5        5        6 ar
   6        6        7 ar
   7        7        8 1
   8        8        9 1
   9        9       10 1
  10       10       11 1
  11       11       12 ar
  12       12       13 ar
  13       13       14 ar
  14       14       15 ar
  15       15       16 1
  16       16       17 1
  17       16       18 2
  18       16       19 2
  19       15       20 ar
  20       20       11 ar
  21       10       21 2
  22       21       22 1
  23       22       23 2
  24       23        9 1
  25       23       24 1
  26       24       25 1
  27       24       26 1
  28       26       27 1
  29       27       28 1
  30       28       29 1
  31       29       30 1
  32       30       31 1
  33       31       32 1
  34       32       27 1
  35        7       33 ar
  36       33       34 ar
  37       34        4 ar
  38        1       35 1
  39        1       36 1
  40        1       37 1
  41        3       38 1
  42        3       39 1
  43        3       40 1
  44        5       41 1
  45        6       42 1
  46        8       43 1
  47        8       44 1
  48       12       45 1
  49       13       46 1
  50       14       47 1
  51       17       48 1
  52       17       49 1
  53       17       50 1
  54       20       51 1
  55       25       52 1
  56       25       53 1
  57       25       54 1
  58       26       55 1
  59       26       56 1
  60       27       57 1
  61       28       58 1
  62       28       59 1
  63       29       60 1
  64       29       61 1
  65       30       62 1
  66       30       63 1
  67       31       64 1
  68       31       65 1
  69       32       66 1
  70       32       67 1
  71       33       68 1

@<TRIPOS>MOLECULE

  68   71
SMALL
USER_CHARGES
@<TRIPOS>ATOM
   1 C1          -3.7173     3.8844    -2.4999 C.3          1    LIG   0.0000
   2 N2          -2.3201     4.2694    -2.2537 N.pl3        1    LIG   0.0000
   3 C3          -1.7763     5.4917    -2.8629 C.3          1    LIG   0.0000
   4 C4          -1.5077     3.4723    -1.4394 C.ar         1    LIG   0.0000
   5 C5          -0.7724     2.4515    -2.0332 C.ar         1    LIG   0.0000
   6 C6           0.0410     1.6525    -1.2365 C.ar         1    LIG   0.0000
   7 C7           0.1093     1.8779     0.1348 C.ar         1    LIG   0.0000
   8 C8           1.0000     1.0000     1.0000 C.3          1    LIG   0.0000
   9 N9           1.8480     1.8480     1.8480 N.pl3        1    LIG   0.0000
  10 C10          1.5330     2.3063     3.0881 C.2          1    LIG   0.0000
  11 C11          0.3127     2.0507     3.8291 C.ar         1    LIG   0.0000
  12 C12         -0.6853     1.2669     3.2606 C.ar         1    LIG   0.0000
  13 C13         -1.8514     1.0268     3.9800 C.ar         1    LIG   0.0000
  14 C14         -2.0269     1.5602     5.2525 C.ar         1    LIG   0.0000
  15 C15         -1.0155     2.3411     5.8018 C.ar         1    LIG   0.0000
  16 S16         -1.2206     3.0154     7.3927 S.o2         1    LIG   0.0000
  17 C17         -1.9989     4.6443     7.2618 C.3          1    LIG   0.0000
  18 O18         -2.0570     2.1456     8.1786 O.2          1    LIG   0.0000
  19 O19          0.0651     3.1474     8.0275 O.2          1    LIG   0.0000
  20 C20          0.1587     2.5931     5.1003 C.ar         1    LIG   0.0000
  21 N21          2.5535     3.0182     3.4893 N.2          1    LIG   0.0000
  22 N22          3.4846     3.0419     2.5523 N.2          1    LIG   0.0000
  23 C23          3.0838     2.3239     1.5302 C.2          1    LIG   0.0000
  24 N24          3.7906     2.0937     0.3447 N.pl3        1    LIG   0.0000
  25 C25          3.6299     3.0070    -0.7960 C.3          1    LIG   0.0000
  26 C26          4.6937     0.9386     0.2399 C.3          1    LIG   0.0000
  27 C27          4.8704     0.3076     1.6112 C.3          1    LIG   0.0000
  28 C28          5.8027    -0.8896     1.5197 C.3          1    LIG   0.0000
  29 C29          5.9820    -1.5167     2.8928 C.3          1    LIG   0.0000
  30 C30          6.5456    -0.4980     3.8710 C.3          1    LIG   0.0000
  31 C31          5.6068     0.6950     3.9590 C.3          1    LIG   0.0000
  32 C32          5.4250     1.3302     2.5899 C.3          1    LIG   0.0000
  33 C33         -0.6503     2.9140     0.6692 C.ar         1    LIG   0.0000
  34 N34         -1.4278     3.6748    -0.1155 N.ar         1    LIG   0.0000
  35 H           -4.1487     4.5597    -3.0980 H            1    LIG   0.0000
  36 H           -3.7431     2.9859    -2.9383 H            1    LIG   0.0000
  37 H           -4.2104     3.8455    -1.6308 H            1    LIG   0.0000
  38 H           -2.4863     5.9363    -3.4089 H            1    LIG   0.0000
  39 H           -1.4700     6.1149    -2.1433 H            1    LIG   0.0000
  40 H           -1.0027     5.2554    -3.4508 H            1    LIG   0.0000
  41 H           -0.8278     2.2944    -3.0192 H            1    LIG   0.0000
  42 H            0.5768     0.9160    -1.6494 H            1    LIG   0.0000
  43 H            0.4311     0.4143     1.5773 H            1    LIG   0.0000
  44 H            1.5773     0.4311     0.4143 H            1    LIG   0.0000
  45 H           -0.5661     0.8807     2.3459 H            1    LIG   0.0000
  46 H           -2.5727     0.4635     3.5771 H            1    LIG   0.0000
  47 H           -2.8677     1.3848     5.7647 H            1    LIG   0.0000
  48 H           -1.4181     5.2484     6.7161 H            1    LIG   0.0000
  49 H           -2.8918     4.5527     6.8210 H            1    LIG   0.0000
  50 H           -2.1168     5.0319     8.1761 H            1    LIG   0.0000
  51 H            0.8806     3.1553     5.5036 H            1    LIG   0.0000
  52 H            4.2028     2.6968    -1.5546 H            1    LIG   0.0000
  53 H            2.6722     3.0159    -1.0835 H            1    LIG   0.0000
  54 H            3.9054     3.9295    -0.5257 H            1    LIG   0.0000
  55 H            5.5824     1.2406    -0.1051 H            1    LIG   0.0000
  56 H            4.3032     0.2661    -0.3887 H            1    LIG   0.0000
  57 H            3.9786    -0.0028     1.9403 H            1    LIG   0.0000
  58 H            6.6921    -0.5908     1.1736 H            1    LIG   0.0000
  59 H            5.4123    -1.5661     0.8953 H            1    LIG   0.0000
  60 H            6.6125    -2.2897     2.8223 H            1    LIG   0.0000
  61 H            5.0960    -1.8386     3.2263 H            1    LIG   0.0000
  62 H            7.4434    -0.1927     3.5536 H            1    LIG   0.0000
  63 H            6.6363    -0.9180     4.7740 H            1    LIG   0.0000
  64 H            4.7180     0.3900     4.3011 H            1    LIG   0.0000
  65 H            5.9916     1.3712     4.5873 H            1    LIG   0.0000
  66 H            4.7883     2.0978     2.6630 H            1    LIG   0.0000
  67 H            6.3087     1.6605     2.2583 H            1    LIG   0.0000
  68 H           -0.6161     3.0939     1.6523 H            1    LIG   0.0000
@<TRIPOS>BOND
   1        1        2 1
   2        2        3 1
   3        2        4 1
   4        4        5 ar
   5        5        6 ar
   6        6        7 ar
   7        7        8 1
   8        8        9 1
   9        9       10 1
  10       10       11 1
  11       11       12 ar
  12       12       13 ar
  13       13       14 ar
  14       14       15 ar
  15       15       16 1
  16       16       17 1
  17       16       18 2
  18       16       19 2
  19       15       20 ar
  20       20       11 ar
  21       10       21 2
  22       21       22 1
  23       22       23 2
  24       23        9 1
  25       23       24 1
  26       24       25 1
  27       24       26 1
  28       26       27 1
  29       27       28 1
  30       28       29 1
  31       29       30 1
  32       30       31 1
  33       31       32 1
  34       32       27 1
  35        7       33 ar
  36       33       34 ar
  37       34        4 ar
  38        1       35 1
  39        1       36 1
  40        1       37 1
  41        3       38 1
  42        3       39 1
  43        3       40 1
  44        5       41 1
  45        6       42 1
  46        8       43 1
  47        8       44 1
  48       12       45 1
  49       13       46 1
  50       14       47 1
  51       17       48 1
  52       17       49 1
  53       17       50 1
  54       20       51 1
  55       25       52 1
  56       25       53 1
  57       25       54 1
  58       26       55 1
  59       26       56 1
  60       27       57 1
  61       28       58 1
  62       28       59 1
  63       29       60 1
  64       29       61 1
  65       30       62 1
  66       30       63 1
  67       31       64 1
  68       31       65 1
  69       32       66 1
  70       32       67 1
  71       33       68 1

@<TRIPOS>MOLECULE

  68   71
SMALL
USER_CHARGES
@<TRIPOS>ATOM
   1 C1          -1.8537     4.7482    -3.5419 C.3          1    LIG   0.0000
   2 N2          -2.3202     4.3010    -2.2216 N.pl3        1    LIG   0.0000
   3 C3          -3.6390     4.7215    -1.7268 C.3          1    LIG   0.0000
   4 C4          -1.5087     3.4751    -1.4356 C.ar         1    LIG   0.0000
   5 C5          -0.6176     4.0712    -0.5492 C.ar         1    LIG   0.0000
   6 C6           0.1939     3.2627     0.2400 C.ar         1    LIG   0.0000
   7 C7           0.1093     1.8779     0.1348 C.ar         1    LIG   0.0000
   8 C8           1.0000     1.0000     1.0000 C.3          1    LIG   0.0000
   9 N9           1.8480     1.8480     1.8480 N.pl3        1    LIG   0.0000
  10 C10          1.5330     2.3063     3.0881 C.2          1    LIG   0.0000
  11 C11          0.3127     2.0507     3.8291 C.ar         1    LIG   0.0000
  12 C12         -0.6853     1.2669     3.2606 C.ar         1    LIG   0.0000
  13 C13         -1.8514     1.0268     3.9800 C.ar         1    LIG   0.0000
  14 C14         -2.0269     1.5602     5.2525 C.ar         1    LIG   0.0000
  15 C15         -1.0155     2.3411     5.8018 C.ar         1    LIG   0.0000
  16 S16         -1.2206     3.0154     7.3927 S.o2         1    LIG   0.0000
  17 C17         -1.9989     4.6443     7.2618 C.3          1    LIG   0.0000
  18 O18         -2.0570     2.1456     8.1786 O.2          1    LIG   0.0000
  19 O19          0.0651     3.1474     8.0275 O.2          1    LIG   0.0000
  20 C20          0.1587     2.5931     5.1003 C.ar         1    LIG   0.0000
  21 N21          2.5535     3.0182     3.4893 N.2          1    LIG   0.0000
  22 N22          3.4846     3.0419     2.5523 N.2          1    LIG   0.0000
  23 C23          3.0838     2.3239     1.5302 C.2          1    LIG   0.0000
  24 N24          3.7906     2.0937     0.3447 N.pl3        1    LIG   0.0000
  25 C25          3.2004     1.2606    -0.7129 C.3          1    LIG   0.0000
  26 C26          5.1232     2.6851     0.1568 C.3          1    LIG   0.0000
  27 C27          6.0888     2.0896     1.1681 C.3          1    LIG   0.0000
  28 C28          5.9139     2.7651     2.5187 C.3          1    LIG   0.0000
  29 C29          6.8772     2.1651     3.5302 C.3          1    LIG   0.0000
  30 C30          6.6383     0.6697     3.6670 C.3          1    LIG   0.0000
  31 C31          6.8174     0.0008     2.3131 C.3          1    LIG   0.0000
  32 C32          5.8547     0.5930     1.2965 C.3          1    LIG   0.0000
  33 C33         -0.8013     1.3419    -0.7704 C.ar         1    LIG   0.0000
  34 N34         -1.5765     2.1379    -1.5219 N.ar         1    LIG   0.0000
  35 H           -2.5519     5.3265    -3.9639 H            1    LIG   0.0000
  36 H           -1.0072     5.2701    -3.4372 H            1    LIG   0.0000
  37 H           -1.6846     3.9520    -4.1230 H            1    LIG   0.0000
  38 H           -4.0809     5.3037    -2.4093 H            1    LIG   0.0000
  39 H           -4.2054     3.9144    -1.5602 H            1    LIG   0.0000
  40 H           -3.5279     5.2325    -0.8745 H            1    LIG   0.0000
  41 H           -0.5611     5.0672    -0.4803 H            1    LIG   0.0000
  42 H            0.8381     3.6768     0.8830 H            1    LIG   0.0000
  43 H            0.4311     0.4143     1.5773 H            1    LIG   0.0000
  44 H            1.5773     0.4311     0.4143 H            1    LIG   0.0000
  45 H           -0.5661     0.8807     2.3459 H            1    LIG   0.0000
  46 H           -2.5727     0.4635     3.5771 H            1    LIG   0.0000
  47 H           -2.8677     1.3848     5.7647 H            1    LIG   0.0000
  48 H           -1.4181     5.2484     6.7161 H            1    LIG   0.0000
  49 H           -2.8918     4.5527     6.8210 H            1    LIG   0.0000
  50 H           -2.1168     5.0319     8.1761 H            1    LIG   0.0000
  51 H            0.8806     3.1553     5.5036 H            1    LIG   0.0000
  52 H            3.8350     1.2011    -1.4835 H            1    LIG   0.0000
  53 H            3.0235     0.3436    -0.3552 H            1    LIG   0.0000
  54 H            2.3412     1.6702    -1.0195 H            1    LIG   0.0000
  55 H            5.0703     3.6749     0.2892 H            1    LIG   0.0000
  56 H            5.4473     2.4894    -0.7688 H            1    LIG   0.0000
  57 H            7.0242     2.2432     0.8497 H            1    LIG   0.0000
  58 H            4.9751     2.6318     2.8363 H            1    LIG   0.0000
  59 H            6.0986     3.7435     2.4257 H            1    LIG   0.0000
  60 H            6.7381     2.6037     4.4180 H            1    LIG   0.0000
  61 H            7.8162     2.3222     3.2243 H            1    LIG   0.0000
  62 H            5.7080     0.5098     3.9972 H            1    LIG   0.0000
  63 H            7.2935     0.2858     4.3176 H            1    LIG   0.0000
  64 H            7.7561     0.1409     1.9982 H            1    LIG   0.0000
  65 H            6.6390    -0.9790     2.4038 H            1    LIG   0.0000
  66 H            6.0019     0.1575     0.4084 H            1    LIG   0.0000
  67 H            4.9148     0.4294     1.5963 H            1    LIG   0.0000
  68 H           -0.8790     0.3491    -0.8621 H            1    LIG   0.0000
@<TRIPOS>BOND
   1        1        2 1
   2        2        3 1
   3        2        4 1
   4        4        5 ar
   5        5        6 ar
   6        6        7 ar
   7        7        8 1
   8        8        9 1
   9        9       10 1
  10       10       11 1
  11       11       12 ar
  12       12       13 ar
  13       13       14 ar
  14       14       15 ar
  15       15       16 1
  16       16       17 1
  17       16       18 2
  18       16       19 2
  19       15       20 ar
  20       20       11 ar
  21       10       21 2
  22       21       22 1
  23       22       23 2
  24       23        9 1
  25       23       24 1
  26       24       25 1
  27       24       26 1
  28       26       27 1
  29       27       28 1
  30       28       29 1
  31       29       30 1
  32       30       31 1
  33       31       32 1
  34       32       27 1
  35        7       33 ar
  36       33       34 ar
  37       34        4 ar
  38        1       35 1
  39        1       36 1
  40        1       37 1
  41        3       38 1
  42        3       39 1
  43        3       40 1
  44        5       41 1
  45        6       42 1
  46        8       43 1
  47        8       44 1
  48       12       45 1
  49       13       46 1
  50       14       47 1
  51       17       48 1
  52       17       49 1
  53       17       50 1
  54       20       51 1
  55       25       52 1
  56       25       53 1
  57       25       54 1
  58       26       55 1
  59       26       56 1
  60       27       57 1
  61       28       58 1
  62       28       59 1
  63       29       60 1
  64       29       61 1
  65       30       62 1
  66       30       63 1
  67       31       64 1
  68       31       65 1
  69       32       66 1
  70       32       67 1
  71       33       68 1

@<TRIPOS>MOLECULE

  68   71
SMALL
USER_CHARGES
@<TRIPOS>ATOM
   1 C1          -3.1119     5.3688    -1.5791 C.3          1    LIG   0.0000
   2 N2          -2.3372     4.2922    -2.2130 N.pl3        1    LIG   0.0000
   3 C3          -2.4309     4.0754    -3.6639 C.3          1    LIG   0.0000
   4 C4          -1.5105     3.4738    -1.4351 C.ar         1    LIG   0.0000
   5 C5          -1.4467     3.7070    -0.0651 C.ar         1    LIG   0.0000
   6 C6          -0.6308     2.9000     0.7209 C.ar         1    LIG   0.0000
   7 C7           0.1093     1.8779     0.1348 C.ar         1    LIG   0.0000
   8 C8           1.0000     1.0000     1.0000 C.3          1    LIG   0.0000
   9 N9           1.8480     1.8480     1.8480 N.pl3        1    LIG   0.0000
  10 C10          1.5330     2.3063     3.0881 C.2          1    LIG   0.0000
  11 C11          0.3127     2.0507     3.8291 C.ar         1    LIG   0.0000
  12 C12         -0.6853     1.2669     3.2606 C.ar         1    LIG   0.0000
  13 C13         -1.8514     1.0268     3.9800 C.ar         1    LIG   0.0000
  14 C14         -2.0269     1.5602     5.2525 C.ar         1    LIG   0.0000
  15 C15         -1.0155     2.3411     5.8018 C.ar         1    LIG   0.0000
  16 S16         -1.2206     3.0154     7.3927 S.o2         1    LIG   0.0000
  17 C17         -1.9989     4.6443     7.2618 C.3          1    LIG   0.0000
  18 O18         -2.0570     2.1456     8.1786 O.2          1    LIG   0.0000
  19 O19          0.0651     3.1474     8.0275 O.2          1    LIG   0.0000
  20 C20          0.1587     2.5931     5.1003 C.ar         1    LIG   0.0000
  21 N21          2.5535     3.0182     3.4893 N.2          1    LIG   0.0000
  22 N22          3.4846     3.0419     2.5523 N.2          1    LIG   0.0000
  23 C23          3.0838     2.3239     1.5302 C.2          1    LIG   0.0000
  24 N24          3.7906     2.0937     0.3447 N.pl3        1    LIG   0.0000
  25 C25          3.0765     1.6572    -0.8638 C.3          1    LIG   0.0000
  26 C26          5.2471     2.2884     0.3077 C.3          1    LIG   0.0000
  27 C27          5.9415     0.9420     0.4298 C.3          1    LIG   0.0000
  28 C28          5.5303     0.0356    -0.7192 C.3          1    LIG   0.0000
  29 C29          6.2292    -1.3090    -0.5982 C.3          1    LIG   0.0000
  30 C30          7.7384    -1.1239    -0.6023 C.3          1    LIG   0.0000
  31 C31          8.1422    -0.2185     0.5508 C.3          1    LIG   0.0000
  32 C32          7.4500     1.1300     0.4350 C.3          1    LIG   0.0000
  33 C33          0.0033     1.6950    -1.2404 C.ar         1    LIG   0.0000
  34 N34         -0.7902     2.4826    -1.9817 N.ar         1    LIG   0.0000
  35 H           -3.6438     5.8510    -2.2752 H            1    LIG   0.0000
  36 H           -3.7310     4.9775    -0.8982 H            1    LIG   0.0000
  37 H           -2.4879     6.0102    -1.1328 H            1    LIG   0.0000
  38 H           -3.0606     4.7433    -4.0607 H            1    LIG   0.0000
  39 H           -1.5264     4.1841    -4.0762 H            1    LIG   0.0000
  40 H           -2.7694     3.1515    -3.8417 H            1    LIG   0.0000
  41 H           -1.9802     4.4446     0.3489 H            1    LIG   0.0000
  42 H           -0.5761     3.0545     1.7074 H            1    LIG   0.0000
  43 H            0.4311     0.4143     1.5773 H            1    LIG   0.0000
  44 H            1.5773     0.4311     0.4143 H            1    LIG   0.0000
  45 H           -0.5661     0.8807     2.3459 H            1    LIG   0.0000
  46 H           -2.5727     0.4635     3.5771 H            1    LIG   0.0000
  47 H           -2.8677     1.3848     5.7647 H            1    LIG   0.0000
  48 H           -1.4181     5.2484     6.7161 H            1    LIG   0.0000
  49 H           -2.8918     4.5527     6.8210 H            1    LIG   0.0000
  50 H           -2.1168     5.0319     8.1761 H            1    LIG   0.0000
  51 H            0.8806     3.1553     5.5036 H            1    LIG   0.0000
  52 H            3.7289     1.5408    -1.6127 H            1    LIG   0.0000
  53 H            2.6171     0.7874    -0.6837 H            1    LIG   0.0000
  54 H            2.3977     2.3465    -1.1172 H            1    LIG   0.0000
  55 H            5.5242     2.8764     1.0676 H            1    LIG   0.0000
  56 H            5.5041     2.7187    -0.5576 H            1    LIG   0.0000
  57 H            5.6670     0.5148     1.2913 H            1    LIG   0.0000
  58 H            5.7849     0.4640    -1.5862 H            1    LIG   0.0000
  59 H            4.5402    -0.1026    -0.6938 H            1    LIG   0.0000
  60 H            5.9661    -1.8878    -1.3701 H            1    LIG   0.0000
  61 H            5.9534    -1.7480     0.2569 H            1    LIG   0.0000
  62 H            8.0207    -0.7082    -1.4669 H            1    LIG   0.0000
  63 H            8.1835    -2.0134    -0.4991 H            1    LIG   0.0000
  64 H            7.8814    -0.6494     1.4147 H            1    LIG   0.0000
  65 H            9.1328    -0.0829     0.5316 H            1    LIG   0.0000
  66 H            7.7095     1.7031     1.2122 H            1    LIG   0.0000
  67 H            7.7312     1.5745    -0.4155 H            1    LIG   0.0000
  68 H            0.5260     0.9661    -1.6825 H            1    LIG   0.0000
@<TRIPOS>BOND
   1        1        2 1
   2        2        3 1
   3        2        4 1
   4        4        5 ar
   5        5        6 ar
   6        6        7 ar
   7        7        8 1
   8        8        9 1
   9        9       10 1
  10       10       11 1
  11       11       12 ar
  12       12       13 ar
  13       13       14 ar
  14       14       15 ar
  15       15       16 1
  16       16       17 1
  17       16       18 2
  18       16       19 2
  19       15       20 ar
  20       20       11 ar
  21       10       21 2
  22       21       22 1
  23       22       23 2
  24       23        9 1
  25       23       24 1
  26       24       25 1
  27       24       26 1
  28       26       27 1
  29       27       28 1
  30       28       29 1
  31       29       30 1
  32       30       31 1
  33       31       32 1
  34       32       27 1
  35        7       33 ar
  36       33       34 ar
  37       34        4 ar
  38        1       35 1
  39        1       36 1
  40        1       37 1
  41        3       38 1
  42        3       39 1
  43        3       40 1
  44        5       41 1
  45        6       42 1
  46        8       43 1
  47        8       44 1
  48       12       45 1
  49       13       46 1
  50       14       47 1
  51       17       48 1
  52       17       49 1
  53       17       50 1
  54       20       51 1
  55       25       52 1
  56       25       53 1
  57       25       54 1
  58       26       55 1
  59       26       56 1
  60       27       57 1
  61       28       58 1
  62       28       59 1
  63       29       60 1
  64       29       61 1
  65       30       62 1
  66       30       63 1
  67       31       64 1
  68       31       65 1
  69       32       66 1
  70       32       67 1
  71       33       68 1

@<TRIPOS>MOLECULE

  68   71
SMALL
USER_CHARGES
@<TRIPOS>ATOM
   1 C1          -3.7920     3.9944    -2.2735 C.3          1    LIG   0.0000
   2 N2          -2.3481     4.2663    -2.2281 N.pl3        1    LIG   0.0000
   3 C3          -1.7836     5.3733    -3.0134 C.3          1    LIG   0.0000
   4 C4          -1.5110     3.4712    -1.4372 C.ar         1    LIG   0.0000
   5 C5          -2.0793     2.4317    -0.7079 C.ar         1    LIG   0.0000
   6 C6          -1.2591     1.6319     0.0810 C.ar         1    LIG   0.0000
   7 C7           0.1093     1.8779     0.1348 C.ar         1    LIG   0.0000
   8 C8           1.0000     1.0000     1.0000 C.3          1    LIG   0.0000
   9 N9           1.8480     1.8480     1.8480 N.pl3        1    LIG   0.0000
  10 C10          1.5330     2.3063     3.0881 C.2          1    LIG   0.0000
  11 C11          0.3127     2.0507     3.8291 C.ar         1    LIG   0.0000
  12 C12         -0.6853     1.2669     3.2606 C.ar         1    LIG   0.0000
  13 C13         -1.8514     1.0268     3.9800 C.ar         1    LIG   0.0000
  14 C14         -2.0269     1.5602     5.2525 C.ar         1    LIG   0.0000
  15 C15         -1.0155     2.3411     5.8018 C.ar         1    LIG   0.0000
  16 S16         -1.2206     3.0154     7.3927 S.o2         1    LIG   0.0000
  17 C17         -1.9989     4.6443     7.2618 C.3          1    LIG   0.0000
  18 O18         -2.0570     2.1456     8.1786 O.2          1    LIG   0.0000
  19 O19          0.0651     3.1474     8.0275 O.2          1    LIG   0.0000
  20 C20          0.1587     2.5931     5.1003 C.ar         1    LIG   0.0000
  21 N21          2.5535     3.0182     3.4893 N.2          1    LIG   0.0000
  22 N22          3.4846     3.0419     2.5523 N.2          1    LIG   0.0000
  23 C23          3.0838     2.3239     1.5302 C.2          1    LIG   0.0000
  24 N24          3.7906     2.0937     0.3447 N.pl3        1    LIG   0.0000
  25 C25          3.4403     0.9498    -0.5096 C.3          1    LIG   0.0000
  26 C26          4.8833     2.9958    -0.0466 C.3          1    LIG   0.0000
  27 C27          4.3797     3.9785    -1.0909 C.3          1    LIG   0.0000
  28 C28          3.2328     4.8005    -0.5254 C.3          1    LIG   0.0000
  29 C29          2.7334     5.7860    -1.5695 C.3          1    LIG   0.0000
  30 C30          3.8599     6.7074    -2.0100 C.3          1    LIG   0.0000
  31 C31          5.0020     5.8785    -2.5767 C.3          1    LIG   0.0000
  32 C32          5.5096     4.8926    -1.5369 C.3          1    LIG   0.0000
  33 C33          0.6176     2.9325    -0.6172 C.ar         1    LIG   0.0000
  34 N34         -0.1892     3.6920    -1.3732 N.ar         1    LIG   0.0000
  35 H           -4.2360     4.6520    -2.8821 H            1    LIG   0.0000
  36 H           -3.9461     3.0673    -2.6150 H            1    LIG   0.0000
  37 H           -4.1762     4.0791    -1.3541 H            1    LIG   0.0000
  38 H           -2.5158     5.8329    -3.5158 H            1    LIG   0.0000
  39 H           -1.3405     6.0259    -2.3988 H            1    LIG   0.0000
  40 H           -1.1103     5.0141    -3.6597 H            1    LIG   0.0000
  41 H           -3.0638     2.2620    -0.7502 H            1    LIG   0.0000
  42 H           -1.6530     0.8799     0.6095 H            1    LIG   0.0000
  43 H            0.4311     0.4143     1.5773 H            1    LIG   0.0000
  44 H            1.5773     0.4311     0.4143 H            1    LIG   0.0000
  45 H           -0.5661     0.8807     2.3459 H            1    LIG   0.0000
  46 H           -2.5727     0.4635     3.5771 H            1    LIG   0.0000
  47 H           -2.8677     1.3848     5.7647 H            1    LIG   0.0000
  48 H           -1.4181     5.2484     6.7161 H            1    LIG   0.0000
  49 H           -2.8918     4.5527     6.8210 H            1    LIG   0.0000
  50 H           -2.1168     5.0319     8.1761 H            1    LIG   0.0000
  51 H            0.8806     3.1553     5.5036 H            1    LIG   0.0000
  52 H            4.0405     0.9349    -1.3093 H            1    LIG   0.0000
  53 H            3.5526     0.1011     0.0073 H            1    LIG   0.0000
  54 H            2.4897     1.0352    -0.8078 H            1    LIG   0.0000
  55 H            5.6368     2.4606    -0.4284 H            1    LIG   0.0000
  56 H            5.2045     3.4981     0.7563 H            1    LIG   0.0000
  57 H            4.0486     3.4655    -1.8829 H            1    LIG   0.0000
  58 H            3.5508     5.3030     0.2786 H            1    LIG   0.0000
  59 H            2.4859     4.1897    -0.2628 H            1    LIG   0.0000
  60 H            1.9936     6.3336    -1.1787 H            1    LIG   0.0000
  61 H            2.3916     5.2812    -2.3622 H            1    LIG   0.0000
  62 H            4.1872     7.2326    -1.2245 H            1    LIG   0.0000
  63 H            3.5224     7.3339    -2.7126 H            1    LIG   0.0000
  64 H            4.6775     5.3747    -3.3773 H            1    LIG   0.0000
  65 H            5.7486     6.4869    -2.8457 H            1    LIG   0.0000
  66 H            6.2440     4.3418    -1.9336 H            1    LIG   0.0000
  67 H            5.8598     5.3957    -0.7468 H            1    LIG   0.0000
  68 H            1.5982     3.1270    -0.5936 H            1    LIG   0.0000
@<TRIPOS>BOND
   1        1        2 1
   2        2        3 1
   3        2        4 1
   4        4        5 ar
   5        5        6 ar
   6        6        7 ar
   7        7        8 1
   8        8        9 1
   9        9       10 1
  10       10       11 1
  11       11       12 ar
  12       12       13 ar
  13       13       14 ar
  14       14       15 ar
  15       15       16 1
  16       16       17 1
  17       16       18 2
  18       16       19 2
  19       15       20 ar
  20       20       11 ar
  21       10       21 2
  22       21       22 1
  23       22       23 2
  24       23        9 1
  25       23       24 1
  26       24       25 1
  27       24       26 1
  28       26       27 1
  29       27       28 1
  30       28       29 1
  31       29       30 1
  32       30       31 1
  33       31       32 1
  34       32       27 1
  35        7       33 ar
  36       33       34 ar
  37       34        4 ar
  38        1       35 1
  39        1       36 1
  40        1       37 1
  41        3       38 1
  42        3       39 1
  43        3       40 1
  44        5       41 1
  45        6       42 1
  46        8       43 1
  47        8       44 1
  48       12       45 1
  49       13       46 1
  50       14       47 1
  51       17       48 1
  52       17       49 1
  53       17       50 1
  54       20       51 1
  55       25       52 1
  56       25       53 1
  57       25       54 1
  58       26       55 1
  59       26       56 1
  60       27       57 1
  61       28       58 1
  62       28       59 1
  63       29       60 1
  64       29       61 1
  65       30       62 1
  66       30       63 1
  67       31       64 1
  68       31       65 1
  69       32       66 1
  70       32       67 1
  71       33       68 1

@<TRIPOS>MOLECULE

  68   71
SMALL
USER_CHARGES
@<TRIPOS>ATOM
   1 C1          -3.6672     4.6780    -1.7083 C.3          1    LIG   0.0000
   2 N2          -2.3469     4.2788    -2.2166 N.pl3        1    LIG   0.0000
   3 C3          -1.9045     4.7267    -3.5450 C.3          1    LIG   0.0000
   4 C4          -1.5112     3.4723    -1.4359 C.ar         1    LIG   0.0000
   5 C5          -1.9626     3.0663    -0.1841 C.ar         1    LIG   0.0000
   6 C6          -1.1435     2.2628     0.6021 C.ar         1    LIG   0.0000
   7 C7           0.1093     1.8779     0.1348 C.ar         1    LIG   0.0000
   8 C8           1.0000     1.0000     1.0000 C.3          1    LIG   0.0000
   9 N9           1.8480     1.8480     1.8480 N.pl3        1    LIG   0.0000
  10 C10          1.5330     2.3063     3.0881 C.2          1    LIG   0.0000
  11 C11          0.3127     2.0507     3.8291 C.ar         1    LIG   0.0000
  12 C12         -0.6853     1.2669     3.2606 C.ar         1    LIG   0.0000
  13 C13         -1.8514     1.0268     3.9800 C.ar         1    LIG   0.0000
  14 C14         -2.0269     1.5602     5.2525 C.ar         1    LIG   0.0000
  15 C15         -1.0155     2.3411     5.8018 C.ar         1    LIG   0.0000
  16 S16         -1.2206     3.0154     7.3927 S.o2         1    LIG   0.0000
  17 C17         -2.6741     4.0939     7.4081 C.3          1    LIG   0.0000
  18 O18         -1.4026     1.9511     8.3454 O.2          1    LIG   0.0000
  19 O19         -0.0520     3.7798     7.7443 O.2          1    LIG   0.0000
  20 C20          0.1587     2.5931     5.1003 C.ar         1    LIG   0.0000
  21 N21          2.5535     3.0182     3.4893 N.2          1    LIG   0.0000
  22 N22          3.4846     3.0419     2.5523 N.2          1    LIG   0.0000
  23 C23          3.0838     2.3239     1.5302 C.2          1    LIG   0.0000
  24 N24          3.7906     2.0937     0.3447 N.pl3        1    LIG   0.0000
  25 C25          5.1232     2.6851     0.1568 C.3          1    LIG   0.0000
  26 C26          3.2004     1.2606    -0.7129 C.3          1    LIG   0.0000
  27 C27          3.7894    -0.1387    -0.6434 C.3          1    LIG   0.0000
  28 C28          5.2963    -0.0839    -0.8357 C.3          1    LIG   0.0000
  29 C29          5.8848    -1.4839    -0.7698 C.3          1    LIG   0.0000
  30 C30          5.2588    -2.3673    -1.8370 C.3          1    LIG   0.0000
  31 C31          3.7522    -2.4229    -1.6415 C.3          1    LIG   0.0000
  32 C32          3.1612    -1.0239    -1.7075 C.3          1    LIG   0.0000
  33 C33          0.5040     2.3166    -1.1252 C.ar         1    LIG   0.0000
  34 N34         -0.3005     3.0899    -1.8695 N.ar         1    LIG   0.0000
  35 H           -4.1279     5.2481    -2.3887 H            1    LIG   0.0000
  36 H           -4.2167     3.8617    -1.5304 H            1    LIG   0.0000
  37 H           -3.5553     5.1959    -0.8602 H            1    LIG   0.0000
  38 H           -2.6181     5.2898    -3.9616 H            1    LIG   0.0000
  39 H           -1.0665     5.2646    -3.4533 H            1    LIG   0.0000
  40 H           -1.7279     3.9304    -4.1235 H            1    LIG   0.0000
  41 H           -2.8635     3.3483     0.1458 H            1    LIG   0.0000
  42 H           -1.4550     1.9617     1.5034 H            1    LIG   0.0000
  43 H            0.4311     0.4143     1.5773 H            1    LIG   0.0000
  44 H            1.5773     0.4311     0.4143 H            1    LIG   0.0000
  45 H           -0.5661     0.8807     2.3459 H            1    LIG   0.0000
  46 H           -2.5727     0.4635     3.5771 H            1    LIG   0.0000
  47 H           -2.8677     1.3848     5.7647 H            1    LIG   0.0000
  48 H           -2.5478     4.8331     6.7465 H            1    LIG   0.0000
  49 H           -3.4857     3.5631     7.1639 H            1    LIG   0.0000
  50 H           -2.7920     4.4815     8.3223 H            1    LIG   0.0000
  51 H            0.8806     3.1553     5.5036 H            1    LIG   0.0000
  52 H            5.4818     2.4211    -0.7386 H            1    LIG   0.0000
  53 H            5.0560     3.6815     0.2084 H            1    LIG   0.0000
  54 H            5.7383     2.3549     0.8728 H            1    LIG   0.0000
  55 H            3.4020     1.6631    -1.6059 H            1    LIG   0.0000
  56 H            2.2098     1.2120    -0.5852 H            1    LIG   0.0000
  57 H            3.5929    -0.5272     0.2569 H            1    LIG   0.0000
  58 H            5.7011     0.4790    -0.1151 H            1    LIG   0.0000
  59 H            5.5011     0.3189    -1.7279 H            1    LIG   0.0000
  60 H            5.7035    -1.8763     0.1319 H            1    LIG   0.0000
  61 H            6.8724    -1.4344    -0.9194 H            1    LIG   0.0000
  62 H            5.6369    -3.2905    -1.7674 H            1    LIG   0.0000
  63 H            5.4625    -1.9910    -2.7409 H            1    LIG   0.0000
  64 H            3.3466    -2.9870    -2.3607 H            1    LIG   0.0000
  65 H            3.5499    -2.8250    -0.7485 H            1    LIG   0.0000
  66 H            3.3391    -0.6323    -2.6103 H            1    LIG   0.0000
  67 H            2.1743    -1.0746    -1.5547 H            1    LIG   0.0000
  68 H            1.4002     2.0516    -1.4810 H            1    LIG   0.0000
@<TRIPOS>BOND
   1        1        2 1
   2        2        3 1
   3        2        4 1
   4        4        5 ar
   5        5        6 ar
   6        6        7 ar
   7        7        8 1
   8        8        9 1
   9        9       10 1
  10       10       11 1
  11       11       12 ar
  12       12       13 ar
  13       13       14 ar
  14       14       15 ar
  15       15       16 1
  16       16       17 1
  17       16       18 2
  18       16       19 2
  19       15       20 ar
  20       20       11 ar
  21       10       21 2
  22       21       22 1
  23       22       23 2
  24       23        9 1
  25       23       24 1
  26       24       25 1
  27       24       26 1
  28       26       27 1
  29       27       28 1
  30       28       29 1
  31       29       30 1
  32       30       31 1
  33       31       32 1
  34       32       27 1
  35        7       33 ar
  36       33       34 ar
  37       34        4 ar
  38        1       35 1
  39        1       36 1
  40        1       37 1
  41        3       38 1
  42        3       39 1
  43        3       40 1
  44        5       41 1
  45        6       42 1
  46        8       43 1
  47        8       44 1
  48       12       45 1
  49       13       46 1
  50       14       47 1
  51       17       48 1
  52       17       49 1
  53       17       50 1
  54       20       51 1
  55       25       52 1
  56       25       53 1
  57       25       54 1
  58       26       55 1
  59       26       56 1
  60       27       57 1
  61       28       58 1
  62       28       59 1
  63       29       60 1
  64       29       61 1
  65       30       62 1
  66       30       63 1
  67       31       64 1
  68       31       65 1
  69       32       66 1
  70       32       67 1
  71       33       68 1

@<TRIPOS>MOLECULE

  68   71
SMALL
USER_CHARGES
@<TRIPOS>ATOM
   1 C1          -2.2182     5.7624    -2.0998 C.3          1    LIG   0.0000
   2 N2          -2.3202     4.3010    -2.2216 N.pl3        1    LIG   0.0000
   3 C3          -3.2745     3.7072    -3.1690 C.3          1    LIG   0.0000
   4 C4          -1.5087     3.4751    -1.4356 C.ar         1    LIG   0.0000
   5 C5          -0.6176     4.0712    -0.5492 C.ar         1    LIG   0.0000
   6 C6           0.1939     3.2627     0.2400 C.ar         1    LIG   0.0000
   7 C7           0.1093     1.8779     0.1348 C.ar         1    LIG   0.0000
   8 C8           1.0000     1.0000     1.0000 C.3          1    LIG   0.0000
   9 N9           1.8480     1.8480     1.8480 N.pl3        1    LIG   0.0000
  10 C10          1.5330     2.3063     3.0881 C.2          1    LIG   0.0000
  11 C11          0.3127     2.0507     3.8291 C.ar         1    LIG   0.0000
  12 C12         -0.6853     1.2669     3.2606 C.ar         1    LIG   0.0000
  13 C13         -1.8514     1.0268     3.9800 C.ar         1    LIG   0.0000
  14 C14         -2.0269     1.5602     5.2525 C.ar         1    LIG   0.0000
  15 C15         -1.0155     2.3411     5.8018 C.ar         1    LIG   0.0000
  16 S16         -1.2206     3.0154     7.3927 S.o2         1    LIG   0.0000
  17 C17         -2.6741     4.0939     7.4081 C.3          1    LIG   0.0000
  18 O18         -1.4026     1.9511     8.3454 O.2          1    LIG   0.0000
  19 O19         -0.0520     3.7798     7.7443 O.2          1    LIG   0.0000
  20 C20          0.1587     2.5931     5.1003 C.ar         1    LIG   0.0000
  21 N21          2.5535     3.0182     3.4893 N.2          1    LIG   0.0000
  22 N22          3.4846     3.0419     2.5523 N.2          1    LIG   0.0000
  23 C23          3.0838     2.3239     1.5302 C.2          1    LIG   0.0000
  24 N24          3.7906     2.0937     0.3447 N.pl3        1    LIG   0.0000
  25 C25          5.1232     2.6851     0.1568 C.3          1    LIG   0.0000
  26 C26          3.2004     1.2606    -0.7129 C.3          1    LIG   0.0000
  27 C27          2.2047     2.0856    -1.5114 C.3          1    LIG   0.0000
  28 C28          1.5839     1.2389    -2.6107 C.3          1    LIG   0.0000
  29 C29          0.5906     2.0653    -3.4116 C.3          1    LIG   0.0000
  30 C30          1.2831     3.2749    -4.0188 C.3          1    LIG   0.0000
  31 C31          1.9011     4.1216    -2.9177 C.3          1    LIG   0.0000
  32 C32          2.8952     3.2975    -2.1156 C.3          1    LIG   0.0000
  33 C33         -0.8013     1.3419    -0.7704 C.ar         1    LIG   0.0000
  34 N34         -1.5765     2.1379    -1.5219 N.ar         1    LIG   0.0000
  35 H           -2.8640     6.1952    -2.7287 H            1    LIG   0.0000
  36 H           -2.4331     6.0345    -1.1618 H            1    LIG   0.0000
  37 H           -1.2880     6.0516    -2.3260 H            1    LIG   0.0000
  38 H           -3.7687     4.4350    -3.6444 H            1    LIG   0.0000
  39 H           -2.7794     3.1499    -3.8356 H            1    LIG   0.0000
  40 H           -3.9245     3.1328    -2.6714 H            1    LIG   0.0000
  41 H           -0.5611     5.0672    -0.4803 H            1    LIG   0.0000
  42 H            0.8381     3.6768     0.8830 H            1    LIG   0.0000
  43 H            0.4311     0.4143     1.5773 H            1    LIG   0.0000
  44 H            1.5773     0.4311     0.4143 H            1    LIG   0.0000
  45 H           -0.5661     0.8807     2.3459 H            1    LIG   0.0000
  46 H           -2.5727     0.4635     3.5771 H            1    LIG   0.0000
  47 H           -2.8677     1.3848     5.7647 H            1    LIG   0.0000
  48 H           -2.5478     4.8331     6.7465 H            1    LIG   0.0000
  49 H           -3.4857     3.5631     7.1639 H            1    LIG   0.0000
  50 H           -2.7920     4.4815     8.3223 H            1    LIG   0.0000
  51 H            0.8806     3.1553     5.5036 H            1    LIG   0.0000
  52 H            5.4818     2.4211    -0.7386 H            1    LIG   0.0000
  53 H            5.0560     3.6815     0.2084 H            1    LIG   0.0000
  54 H            5.7383     2.3549     0.8728 H            1    LIG   0.0000
  55 H            2.7312     0.4802    -0.2996 H            1    LIG   0.0000
  56 H            3.9234     0.9313    -1.3203 H            1    LIG   0.0000
  57 H            1.4802     2.3995    -0.8977 H            1    LIG   0.0000
  58 H            1.1102     0.4598    -2.2001 H            1    LIG   0.0000
  59 H            2.3047     0.9077    -3.2195 H            1    LIG   0.0000
  60 H           -0.1446     2.3739    -2.8082 H            1    LIG   0.0000
  61 H            0.2069     1.5023    -4.1436 H            1    LIG   0.0000
  62 H            0.6145     3.8220    -4.5225 H            1    LIG   0.0000
  63 H            2.0009     2.9675    -4.6435 H            1    LIG   0.0000
  64 H            2.3736     4.9020    -3.3271 H            1    LIG   0.0000
  65 H            1.1787     4.4509    -2.3096 H            1    LIG   0.0000
  66 H            3.6327     2.9915    -2.7177 H            1    LIG   0.0000
  67 H            3.2757     3.8608    -1.3821 H            1    LIG   0.0000
  68 H           -0.8790     0.3491    -0.8621 H            1    LIG   0.0000
@<TRIPOS>BOND
   1        1        2 1
   2        2        3 1
   3        2        4 1
   4        4        5 ar
   5        5        6 ar
   6        6        7 ar
   7        7        8 1
   8        8        9 1
   9        9       10 1
  10       10       11 1
  11       11       12 ar
  12       12       13 ar
  13       13       14 ar
  14       14       15 ar
  15       15       16 1
  16       16       17 1
  17       16       18 2
  18       16       19 2
  19       15       20 ar
  20       20       11 ar
  21       10       21 2
  22       21       22 1
  23       22       23 2
  24       23        9 1
  25       23       24 1
  26       24       25 1
  27       24       26 1
  28       26       27 1
  29       27       28 1
  30       28       29 1
  31       29       30 1
  32       30       31 1
  33       31       32 1
  34       32       27 1
  35        7       33 ar
  36       33       34 ar
  37       34        4 ar
  38        1       35 1
  39        1       36 1
  40        1       37 1
  41        3       38 1
  42        3       39 1
  43        3       40 1
  44        5       41 1
  45        6       42 1
  46        8       43 1
  47        8       44 1
  48       12       45 1
  49       13       46 1
  50       14       47 1
  51       17       48 1
  52       17       49 1
  53       17       50 1
  54       20       51 1
  55       25       52 1
  56       25       53 1
  57       25       54 1
  58       26       55 1
  59       26       56 1
  60       27       57 1
  61       28       58 1
  62       28       59 1
  63       29       60 1
  64       29       61 1
  65       30       62 1
  66       30       63 1
  67       31       64 1
  68       31       65 1
  69       32       66 1
  70       32       67 1
  71       33       68 1

