@<TRIPOS>MOLECULE
*****
 68 71 0 0 0
SMALL
USER_CHARGES

@<TRIPOS>ATOM
      1 C1         -3.1119    5.3688   -1.5791 C.3     1  LIG1        0.0000
      2 N2         -2.3372    4.2922   -2.2130 N.pl3   1  LIG1        0.0000
      3 C3         -2.4309    4.0754   -3.6639 C.3     1  LIG1        0.0000
      4 C4         -1.5105    3.4738   -1.4351 C.3     1  LIG1        0.0000
      5 C5         -1.4467    3.7070   -0.0651 C.3     1  LIG1        0.0000
      6 C6         -0.6308    2.9000    0.7209 C.3     1  LIG1        0.0000
      7 C7          0.1093    1.8779    0.1348 C.3     1  LIG1        0.0000
      8 C8          1.0000    1.0000    1.0000 C.3     1  LIG1        0.0000
      9 N9          1.8480    1.8480    1.8480 N.pl3   1  LIG1        0.0000
     10 C10         1.5330    2.3063    3.0881 C.2     1  LIG1        0.0000
     11 C11         0.3127    2.0507    3.8291 C.3     1  LIG1        0.0000
     12 C12        -0.6853    1.2669    3.2606 C.3     1  LIG1        0.0000
     13 C13        -1.8514    1.0268    3.9800 C.3     1  LIG1        0.0000
     14 C14        -2.0269    1.5602    5.2525 C.3     1  LIG1        0.0000
     15 C15        -1.0155    2.3411    5.8018 C.3     1  LIG1        0.0000
     16 S16        -1.2206    3.0154    7.3927 S.O2    1  LIG1        0.0000
     17 C17        -1.9989    4.6443    7.2618 C.3     1  LIG1        0.0000
     18 O18        -2.0570    2.1456    8.1786 O.2     1  LIG1        0.0000
     19 O19         0.0651    3.1474    8.0275 O.2     1  LIG1        0.0000
     20 C20         0.1587    2.5931    5.1003 C.3     1  LIG1        0.0000
     21 N21         2.5535    3.0182    3.4893 N.2     1  LIG1        0.0000
     22 N22         3.4846    3.0419    2.5523 N.2     1  LIG1        0.0000
     23 C23         3.0838    2.3239    1.5302 C.cat   1  LIG1        0.0000
     24 N24         3.7906    2.0937    0.3447 N.pl3   1  LIG1        0.0000
     25 C25         3.0765    1.6572   -0.8638 C.3     1  LIG1        0.0000
     26 C26         5.2471    2.2884    0.3077 C.3     1  LIG1        0.0000
     27 C27         5.9415    0.9420    0.4298 C.3     1  LIG1        0.0000
     28 C28         5.5303    0.0356   -0.7192 C.3     1  LIG1        0.0000
     29 C29         6.2292   -1.3090   -0.5982 C.3     1  LIG1        0.0000
     30 C30         7.7384   -1.1239   -0.6023 C.3     1  LIG1        0.0000
     31 C31         8.1422   -0.2185    0.5508 C.3     1  LIG1        0.0000
     32 C32         7.4500    1.1300    0.4350 C.3     1  LIG1        0.0000
     33 C33         0.0033    1.6950   -1.2404 C.3     1  LIG1        0.0000
     34 N34        -0.7902    2.4826   -1.9817 N.pl3   1  LIG1        0.0000
     35 H          -3.6438    5.8510   -2.2752 H       1  LIG1        0.0000
     36 H          -3.7310    4.9775   -0.8982 H       1  LIG1        0.0000
     37 H          -2.4879    6.0102   -1.1328 H       1  LIG1        0.0000
     38 H          -3.0606    4.7433   -4.0607 H       1  LIG1        0.0000
     39 H          -1.5264    4.1841   -4.0762 H       1  LIG1        0.0000
     40 H          -2.7694    3.1515   -3.8417 H       1  LIG1        0.0000
     41 H          -1.9802    4.4446    0.3489 H       1  LIG1        0.0000
     42 H          -0.5761    3.0545    1.7074 H       1  LIG1        0.0000
     43 H           0.4311    0.4143    1.5773 H       1  LIG1        0.0000
     44 H           1.5773    0.4311    0.4143 H       1  LIG1        0.0000
     45 H          -0.5661    0.8807    2.3459 H       1  LIG1        0.0000
     46 H          -2.5727    0.4635    3.5771 H       1  LIG1        0.0000
     47 H          -2.8677    1.3848    5.7647 H       1  LIG1        0.0000
     48 H          -1.4181    5.2484    6.7161 H       1  LIG1        0.0000
     49 H          -2.8918    4.5527    6.8210 H       1  LIG1        0.0000
     50 H          -2.1168    5.0319    8.1761 H       1  LIG1        0.0000
     51 H           0.8806    3.1553    5.5036 H       1  LIG1        0.0000
     52 H           3.7289    1.5408   -1.6127 H       1  LIG1        0.0000
     53 H           2.6171    0.7874   -0.6837 H       1  LIG1        0.0000
     54 H           2.3977    2.3465   -1.1172 H       1  LIG1        0.0000
     55 H           5.5242    2.8764    1.0676 H       1  LIG1        0.0000
     56 H           5.5041    2.7187   -0.5576 H       1  LIG1        0.0000
     57 H           5.6670    0.5148    1.2913 H       1  LIG1        0.0000
     58 H           5.7849    0.4640   -1.5862 H       1  LIG1        0.0000
     59 H           4.5402   -0.1026   -0.6938 H       1  LIG1        0.0000
     60 H           5.9661   -1.8878   -1.3701 H       1  LIG1        0.0000
     61 H           5.9534   -1.7480    0.2569 H       1  LIG1        0.0000
     62 H           8.0207   -0.7082   -1.4669 H       1  LIG1        0.0000
     63 H           8.1835   -2.0134   -0.4991 H       1  LIG1        0.0000
     64 H           7.8814   -0.6494    1.4147 H       1  LIG1        0.0000
     65 H           9.1328   -0.0829    0.5316 H       1  LIG1        0.0000
     66 H           7.7095    1.7031    1.2122 H       1  LIG1        0.0000
     67 H           7.7312    1.5745   -0.4155 H       1  LIG1        0.0000
     68 H           0.5260    0.9661   -1.6825 H       1  LIG1        0.0000
@<TRIPOS>BOND
     1     1     2    1
     2     2     3    1
     3     2     4    1
     4     4     5   ar
     5     5     6   ar
     6     6     7   ar
     7     7     8    1
     8     8     9    1
     9     9    10    1
    10    10    11    1
    11    11    12   ar
    12    12    13   ar
    13    13    14   ar
    14    14    15   ar
    15    15    16    1
    16    16    17    1
    17    16    18    2
    18    16    19    2
    19    15    20   ar
    20    20    11   ar
    21    10    21    2
    22    21    22    1
    23    22    23    2
    24    23     9    1
    25    23    24    1
    26    24    25    1
    27    24    26    1
    28    26    27    1
    29    27    28    1
    30    28    29    1
    31    29    30    1
    32    30    31    1
    33    31    32    1
    34    32    27    1
    35     7    33   ar
    36    33    34   ar
    37    34     4   ar
    38     1    35    1
    39     1    36    1
    40     1    37    1
    41     3    38    1
    42     3    39    1
    43     3    40    1
    44     5    41    1
    45     6    42    1
    46     8    43    1
    47     8    44    1
    48    12    45    1
    49    13    46    1
    50    14    47    1
    51    17    48    1
    52    17    49    1
    53    17    50    1
    54    20    51    1
    55    25    52    1
    56    25    53    1
    57    25    54    1
    58    26    55    1
    59    26    56    1
    60    27    57    1
    61    28    58    1
    62    28    59    1
    63    29    60    1
    64    29    61    1
    65    30    62    1
    66    30    63    1
    67    31    64    1
    68    31    65    1
    69    32    66    1
    70    32    67    1
    71    33    68    1
