@<TRIPOS>MOLECULE
*****
 68 71 0 0 0
SMALL
USER_CHARGES

@<TRIPOS>ATOM
      1 C1         -3.7920    3.9944   -2.2735 C.3     1  LIG1        0.0000
      2 N2         -2.3481    4.2663   -2.2281 N.pl3   1  LIG1        0.0000
      3 C3         -1.7836    5.3733   -3.0134 C.3     1  LIG1        0.0000
      4 C4         -1.5110    3.4712   -1.4372 C.3     1  LIG1        0.0000
      5 C5         -2.0793    2.4317   -0.7079 C.3     1  LIG1        0.0000
      6 C6         -1.2591    1.6319    0.0810 C.3     1  LIG1        0.0000
      7 C7          0.1093    1.8779    0.1348 C.3     1  LIG1        0.0000
      8 C8          1.0000    1.0000    1.0000 C.3     1  LIG1        0.0000
      9 N9          1.8480    1.8480    1.8480 N.pl3   1  LIG1        0.0000
     10 C10         1.5330    2.3063    3.0881 C.2     1  LIG1        0.0000
     11 C11         0.3127    2.0507    3.8291 C.3     1  LIG1        0.0000
     12 C12        -0.6853    1.2669    3.2606 C.3     1  LIG1        0.0000
     13 C13        -1.8514    1.0268    3.9800 C.3     1  LIG1        0.0000
     14 C14        -2.0269    1.5602    5.2525 C.3     1  LIG1        0.0000
     15 C15        -1.0155    2.3411    5.8018 C.3     1  LIG1        0.0000
     16 S16        -1.2206    3.0154    7.3927 S.O2    1  LIG1        0.0000
     17 C17        -1.9989    4.6443    7.2618 C.3     1  LIG1        0.0000
     18 O18        -2.0570    2.1456    8.1786 O.2     1  LIG1        0.0000
     19 O19         0.0651    3.1474    8.0275 O.2     1  LIG1        0.0000
     20 C20         0.1587    2.5931    5.1003 C.3     1  LIG1        0.0000
     21 N21         2.5535    3.0182    3.4893 N.2     1  LIG1        0.0000
     22 N22         3.4846    3.0419    2.5523 N.2     1  LIG1        0.0000
     23 C23         3.0838    2.3239    1.5302 C.cat   1  LIG1        0.0000
     24 N24         3.7906    2.0937    0.3447 N.pl3   1  LIG1        0.0000
     25 C25         3.4403    0.9498   -0.5096 C.3     1  LIG1        0.0000
     26 C26         4.8833    2.9958   -0.0466 C.3     1  LIG1        0.0000
     27 C27         4.3797    3.9785   -1.0909 C.3     1  LIG1        0.0000
     28 C28         3.2328    4.8005   -0.5254 C.3     1  LIG1        0.0000
     29 C29         2.7334    5.7860   -1.5695 C.3     1  LIG1        0.0000
     30 C30         3.8599    6.7074   -2.0100 C.3     1  LIG1        0.0000
     31 C31         5.0020    5.8785   -2.5767 C.3     1  LIG1        0.0000
     32 C32         5.5096    4.8926   -1.5369 C.3     1  LIG1        0.0000
     33 C33         0.6176    2.9325   -0.6172 C.3     1  LIG1        0.0000
     34 N34        -0.1892    3.6920   -1.3732 N.pl3   1  LIG1        0.0000
     35 H          -4.2360    4.6520   -2.8821 H       1  LIG1        0.0000
     36 H          -3.9461    3.0673   -2.6150 H       1  LIG1        0.0000
     37 H          -4.1762    4.0791   -1.3541 H       1  LIG1        0.0000
     38 H          -2.5158    5.8329   -3.5158 H       1  LIG1        0.0000
     39 H          -1.3405    6.0259   -2.3988 H       1  LIG1        0.0000
     40 H          -1.1103    5.0141   -3.6597 H       1  LIG1        0.0000
     41 H          -3.0638    2.2620   -0.7502 H       1  LIG1        0.0000
     42 H          -1.6530    0.8799    0.6095 H       1  LIG1        0.0000
     43 H           0.4311    0.4143    1.5773 H       1  LIG1        0.0000
     44 H           1.5773    0.4311    0.4143 H       1  LIG1        0.0000
     45 H          -0.5661    0.8807    2.3459 H       1  LIG1        0.0000
     46 H          -2.5727    0.4635    3.5771 H       1  LIG1        0.0000
     47 H          -2.8677    1.3848    5.7647 H       1  LIG1        0.0000
     48 H          -1.4181    5.2484    6.7161 H       1  LIG1        0.0000
     49 H          -2.8918    4.5527    6.8210 H       1  LIG1        0.0000
     50 H          -2.1168    5.0319    8.1761 H       1  LIG1        0.0000
     51 H           0.8806    3.1553    5.5036 H       1  LIG1        0.0000
     52 H           4.0405    0.9349   -1.3093 H       1  LIG1        0.0000
     53 H           3.5526    0.1011    0.0073 H       1  LIG1        0.0000
     54 H           2.4897    1.0352   -0.8078 H       1  LIG1        0.0000
     55 H           5.6368    2.4606   -0.4284 H       1  LIG1        0.0000
     56 H           5.2045    3.4981    0.7563 H       1  LIG1        0.0000
     57 H           4.0486    3.4655   -1.8829 H       1  LIG1        0.0000
     58 H           3.5508    5.3030    0.2786 H       1  LIG1        0.0000
     59 H           2.4859    4.1897   -0.2628 H       1  LIG1        0.0000
     60 H           1.9936    6.3336   -1.1787 H       1  LIG1        0.0000
     61 H           2.3916    5.2812   -2.3622 H       1  LIG1        0.0000
     62 H           4.1872    7.2326   -1.2245 H       1  LIG1        0.0000
     63 H           3.5224    7.3339   -2.7126 H       1  LIG1        0.0000
     64 H           4.6775    5.3747   -3.3773 H       1  LIG1        0.0000
     65 H           5.7486    6.4869   -2.8457 H       1  LIG1        0.0000
     66 H           6.2440    4.3418   -1.9336 H       1  LIG1        0.0000
     67 H           5.8598    5.3957   -0.7468 H       1  LIG1        0.0000
     68 H           1.5982    3.1270   -0.5936 H       1  LIG1        0.0000
@<TRIPOS>BOND
     1     1     2    1
     2     2     3    1
     3     2     4    1
     4     4     5   ar
     5     5     6   ar
     6     6     7   ar
     7     7     8    1
     8     8     9    1
     9     9    10    1
    10    10    11    1
    11    11    12   ar
    12    12    13   ar
    13    13    14   ar
    14    14    15   ar
    15    15    16    1
    16    16    17    1
    17    16    18    2
    18    16    19    2
    19    15    20   ar
    20    20    11   ar
    21    10    21    2
    22    21    22    1
    23    22    23    2
    24    23     9    1
    25    23    24    1
    26    24    25    1
    27    24    26    1
    28    26    27    1
    29    27    28    1
    30    28    29    1
    31    29    30    1
    32    30    31    1
    33    31    32    1
    34    32    27    1
    35     7    33   ar
    36    33    34   ar
    37    34     4   ar
    38     1    35    1
    39     1    36    1
    40     1    37    1
    41     3    38    1
    42     3    39    1
    43     3    40    1
    44     5    41    1
    45     6    42    1
    46     8    43    1
    47     8    44    1
    48    12    45    1
    49    13    46    1
    50    14    47    1
    51    17    48    1
    52    17    49    1
    53    17    50    1
    54    20    51    1
    55    25    52    1
    56    25    53    1
    57    25    54    1
    58    26    55    1
    59    26    56    1
    60    27    57    1
    61    28    58    1
    62    28    59    1
    63    29    60    1
    64    29    61    1
    65    30    62    1
    66    30    63    1
    67    31    64    1
    68    31    65    1
    69    32    66    1
    70    32    67    1
    71    33    68    1
