@<TRIPOS>MOLECULE
*****
 68 71 0 0 0
SMALL
USER_CHARGES

@<TRIPOS>ATOM
      1 C1         -1.8537    4.7482   -3.5419 C.3     1  LIG1        0.0000
      2 N2         -2.3202    4.3010   -2.2216 N.pl3   1  LIG1        0.0000
      3 C3         -3.6390    4.7215   -1.7268 C.3     1  LIG1        0.0000
      4 C4         -1.5087    3.4751   -1.4356 C.3     1  LIG1        0.0000
      5 C5         -0.6176    4.0712   -0.5492 C.3     1  LIG1        0.0000
      6 C6          0.1939    3.2627    0.2400 C.3     1  LIG1        0.0000
      7 C7          0.1093    1.8779    0.1348 C.3     1  LIG1        0.0000
      8 C8          1.0000    1.0000    1.0000 C.3     1  LIG1        0.0000
      9 N9          1.8480    1.8480    1.8480 N.pl3   1  LIG1        0.0000
     10 C10         1.5330    2.3063    3.0881 C.2     1  LIG1        0.0000
     11 C11         0.3127    2.0507    3.8291 C.3     1  LIG1        0.0000
     12 C12        -0.6853    1.2669    3.2606 C.3     1  LIG1        0.0000
     13 C13        -1.8514    1.0268    3.9800 C.3     1  LIG1        0.0000
     14 C14        -2.0269    1.5602    5.2525 C.3     1  LIG1        0.0000
     15 C15        -1.0155    2.3411    5.8018 C.3     1  LIG1        0.0000
     16 S16        -1.2206    3.0154    7.3927 S.O2    1  LIG1        0.0000
     17 C17        -1.9989    4.6443    7.2618 C.3     1  LIG1        0.0000
     18 O18        -2.0570    2.1456    8.1786 O.2     1  LIG1        0.0000
     19 O19         0.0651    3.1474    8.0275 O.2     1  LIG1        0.0000
     20 C20         0.1587    2.5931    5.1003 C.3     1  LIG1        0.0000
     21 N21         2.5535    3.0182    3.4893 N.2     1  LIG1        0.0000
     22 N22         3.4846    3.0419    2.5523 N.2     1  LIG1        0.0000
     23 C23         3.0838    2.3239    1.5302 C.cat   1  LIG1        0.0000
     24 N24         3.7906    2.0937    0.3447 N.pl3   1  LIG1        0.0000
     25 C25         3.2004    1.2606   -0.7129 C.3     1  LIG1        0.0000
     26 C26         5.1232    2.6851    0.1568 C.3     1  LIG1        0.0000
     27 C27         6.0888    2.0896    1.1681 C.3     1  LIG1        0.0000
     28 C28         5.9139    2.7651    2.5187 C.3     1  LIG1        0.0000
     29 C29         6.8772    2.1651    3.5302 C.3     1  LIG1        0.0000
     30 C30         6.6383    0.6697    3.6670 C.3     1  LIG1        0.0000
     31 C31         6.8174    0.0008    2.3131 C.3     1  LIG1        0.0000
     32 C32         5.8547    0.5930    1.2965 C.3     1  LIG1        0.0000
     33 C33        -0.8013    1.3419   -0.7704 C.3     1  LIG1        0.0000
     34 N34        -1.5765    2.1379   -1.5219 N.pl3   1  LIG1        0.0000
     35 H          -2.5519    5.3265   -3.9639 H       1  LIG1        0.0000
     36 H          -1.0072    5.2701   -3.4372 H       1  LIG1        0.0000
     37 H          -1.6846    3.9520   -4.1230 H       1  LIG1        0.0000
     38 H          -4.0809    5.3037   -2.4093 H       1  LIG1        0.0000
     39 H          -4.2054    3.9144   -1.5602 H       1  LIG1        0.0000
     40 H          -3.5279    5.2325   -0.8745 H       1  LIG1        0.0000
     41 H          -0.5611    5.0672   -0.4803 H       1  LIG1        0.0000
     42 H           0.8381    3.6768    0.8830 H       1  LIG1        0.0000
     43 H           0.4311    0.4143    1.5773 H       1  LIG1        0.0000
     44 H           1.5773    0.4311    0.4143 H       1  LIG1        0.0000
     45 H          -0.5661    0.8807    2.3459 H       1  LIG1        0.0000
     46 H          -2.5727    0.4635    3.5771 H       1  LIG1        0.0000
     47 H          -2.8677    1.3848    5.7647 H       1  LIG1        0.0000
     48 H          -1.4181    5.2484    6.7161 H       1  LIG1        0.0000
     49 H          -2.8918    4.5527    6.8210 H       1  LIG1        0.0000
     50 H          -2.1168    5.0319    8.1761 H       1  LIG1        0.0000
     51 H           0.8806    3.1553    5.5036 H       1  LIG1        0.0000
     52 H           3.8350    1.2011   -1.4835 H       1  LIG1        0.0000
     53 H           3.0235    0.3436   -0.3552 H       1  LIG1        0.0000
     54 H           2.3412    1.6702   -1.0195 H       1  LIG1        0.0000
     55 H           5.0703    3.6749    0.2892 H       1  LIG1        0.0000
     56 H           5.4473    2.4894   -0.7688 H       1  LIG1        0.0000
     57 H           7.0242    2.2432    0.8497 H       1  LIG1        0.0000
     58 H           4.9751    2.6318    2.8363 H       1  LIG1        0.0000
     59 H           6.0986    3.7435    2.4257 H       1  LIG1        0.0000
     60 H           6.7381    2.6037    4.4180 H       1  LIG1        0.0000
     61 H           7.8162    2.3222    3.2243 H       1  LIG1        0.0000
     62 H           5.7080    0.5098    3.9972 H       1  LIG1        0.0000
     63 H           7.2935    0.2858    4.3176 H       1  LIG1        0.0000
     64 H           7.7561    0.1409    1.9982 H       1  LIG1        0.0000
     65 H           6.6390   -0.9790    2.4038 H       1  LIG1        0.0000
     66 H           6.0019    0.1575    0.4084 H       1  LIG1        0.0000
     67 H           4.9148    0.4294    1.5963 H       1  LIG1        0.0000
     68 H          -0.8790    0.3491   -0.8621 H       1  LIG1        0.0000
@<TRIPOS>BOND
     1     1     2    1
     2     2     3    1
     3     2     4    1
     4     4     5   ar
     5     5     6   ar
     6     6     7   ar
     7     7     8    1
     8     8     9    1
     9     9    10    1
    10    10    11    1
    11    11    12   ar
    12    12    13   ar
    13    13    14   ar
    14    14    15   ar
    15    15    16    1
    16    16    17    1
    17    16    18    2
    18    16    19    2
    19    15    20   ar
    20    20    11   ar
    21    10    21    2
    22    21    22    1
    23    22    23    2
    24    23     9    1
    25    23    24    1
    26    24    25    1
    27    24    26    1
    28    26    27    1
    29    27    28    1
    30    28    29    1
    31    29    30    1
    32    30    31    1
    33    31    32    1
    34    32    27    1
    35     7    33   ar
    36    33    34   ar
    37    34     4   ar
    38     1    35    1
    39     1    36    1
    40     1    37    1
    41     3    38    1
    42     3    39    1
    43     3    40    1
    44     5    41    1
    45     6    42    1
    46     8    43    1
    47     8    44    1
    48    12    45    1
    49    13    46    1
    50    14    47    1
    51    17    48    1
    52    17    49    1
    53    17    50    1
    54    20    51    1
    55    25    52    1
    56    25    53    1
    57    25    54    1
    58    26    55    1
    59    26    56    1
    60    27    57    1
    61    28    58    1
    62    28    59    1
    63    29    60    1
    64    29    61    1
    65    30    62    1
    66    30    63    1
    67    31    64    1
    68    31    65    1
    69    32    66    1
    70    32    67    1
    71    33    68    1
