@<TRIPOS>MOLECULE
*****
 68 71 0 0 0
SMALL
USER_CHARGES

@<TRIPOS>ATOM
      1 C1         -3.6672    4.6780   -1.7083 C.3     1  LIG1        0.0000
      2 N2         -2.3469    4.2788   -2.2166 N.pl3   1  LIG1        0.0000
      3 C3         -1.9045    4.7267   -3.5450 C.3     1  LIG1        0.0000
      4 C4         -1.5112    3.4723   -1.4359 C.3     1  LIG1        0.0000
      5 C5         -1.9626    3.0663   -0.1841 C.3     1  LIG1        0.0000
      6 C6         -1.1435    2.2628    0.6021 C.3     1  LIG1        0.0000
      7 C7          0.1093    1.8779    0.1348 C.3     1  LIG1        0.0000
      8 C8          1.0000    1.0000    1.0000 C.3     1  LIG1        0.0000
      9 N9          1.8480    1.8480    1.8480 N.pl3   1  LIG1        0.0000
     10 C10         1.5330    2.3063    3.0881 C.2     1  LIG1        0.0000
     11 C11         0.3127    2.0507    3.8291 C.3     1  LIG1        0.0000
     12 C12        -0.6853    1.2669    3.2606 C.3     1  LIG1        0.0000
     13 C13        -1.8514    1.0268    3.9800 C.3     1  LIG1        0.0000
     14 C14        -2.0269    1.5602    5.2525 C.3     1  LIG1        0.0000
     15 C15        -1.0155    2.3411    5.8018 C.3     1  LIG1        0.0000
     16 S16        -1.2206    3.0154    7.3927 S.O2    1  LIG1        0.0000
     17 C17        -2.6741    4.0939    7.4081 C.3     1  LIG1        0.0000
     18 O18        -1.4026    1.9511    8.3454 O.2     1  LIG1        0.0000
     19 O19        -0.0520    3.7798    7.7443 O.2     1  LIG1        0.0000
     20 C20         0.1587    2.5931    5.1003 C.3     1  LIG1        0.0000
     21 N21         2.5535    3.0182    3.4893 N.2     1  LIG1        0.0000
     22 N22         3.4846    3.0419    2.5523 N.2     1  LIG1        0.0000
     23 C23         3.0838    2.3239    1.5302 C.cat   1  LIG1        0.0000
     24 N24         3.7906    2.0937    0.3447 N.pl3   1  LIG1        0.0000
     25 C25         5.1232    2.6851    0.1568 C.3     1  LIG1        0.0000
     26 C26         3.2004    1.2606   -0.7129 C.3     1  LIG1        0.0000
     27 C27         3.7894   -0.1387   -0.6434 C.3     1  LIG1        0.0000
     28 C28         5.2963   -0.0839   -0.8357 C.3     1  LIG1        0.0000
     29 C29         5.8848   -1.4839   -0.7698 C.3     1  LIG1        0.0000
     30 C30         5.2588   -2.3673   -1.8370 C.3     1  LIG1        0.0000
     31 C31         3.7522   -2.4229   -1.6415 C.3     1  LIG1        0.0000
     32 C32         3.1612   -1.0239   -1.7075 C.3     1  LIG1        0.0000
     33 C33         0.5040    2.3166   -1.1252 C.3     1  LIG1        0.0000
     34 N34        -0.3005    3.0899   -1.8695 N.pl3   1  LIG1        0.0000
     35 H          -4.1279    5.2481   -2.3887 H       1  LIG1        0.0000
     36 H          -4.2167    3.8617   -1.5304 H       1  LIG1        0.0000
     37 H          -3.5553    5.1959   -0.8602 H       1  LIG1        0.0000
     38 H          -2.6181    5.2898   -3.9616 H       1  LIG1        0.0000
     39 H          -1.0665    5.2646   -3.4533 H       1  LIG1        0.0000
     40 H          -1.7279    3.9304   -4.1235 H       1  LIG1        0.0000
     41 H          -2.8635    3.3483    0.1458 H       1  LIG1        0.0000
     42 H          -1.4550    1.9617    1.5034 H       1  LIG1        0.0000
     43 H           0.4311    0.4143    1.5773 H       1  LIG1        0.0000
     44 H           1.5773    0.4311    0.4143 H       1  LIG1        0.0000
     45 H          -0.5661    0.8807    2.3459 H       1  LIG1        0.0000
     46 H          -2.5727    0.4635    3.5771 H       1  LIG1        0.0000
     47 H          -2.8677    1.3848    5.7647 H       1  LIG1        0.0000
     48 H          -2.5478    4.8331    6.7465 H       1  LIG1        0.0000
     49 H          -3.4857    3.5631    7.1639 H       1  LIG1        0.0000
     50 H          -2.7920    4.4815    8.3223 H       1  LIG1        0.0000
     51 H           0.8806    3.1553    5.5036 H       1  LIG1        0.0000
     52 H           5.4818    2.4211   -0.7386 H       1  LIG1        0.0000
     53 H           5.0560    3.6815    0.2084 H       1  LIG1        0.0000
     54 H           5.7383    2.3549    0.8728 H       1  LIG1        0.0000
     55 H           3.4020    1.6631   -1.6059 H       1  LIG1        0.0000
     56 H           2.2098    1.2120   -0.5852 H       1  LIG1        0.0000
     57 H           3.5929   -0.5272    0.2569 H       1  LIG1        0.0000
     58 H           5.7011    0.4790   -0.1151 H       1  LIG1        0.0000
     59 H           5.5011    0.3189   -1.7279 H       1  LIG1        0.0000
     60 H           5.7035   -1.8763    0.1319 H       1  LIG1        0.0000
     61 H           6.8724   -1.4344   -0.9194 H       1  LIG1        0.0000
     62 H           5.6369   -3.2905   -1.7674 H       1  LIG1        0.0000
     63 H           5.4625   -1.9910   -2.7409 H       1  LIG1        0.0000
     64 H           3.3466   -2.9870   -2.3607 H       1  LIG1        0.0000
     65 H           3.5499   -2.8250   -0.7485 H       1  LIG1        0.0000
     66 H           3.3391   -0.6323   -2.6103 H       1  LIG1        0.0000
     67 H           2.1743   -1.0746   -1.5547 H       1  LIG1        0.0000
     68 H           1.4002    2.0516   -1.4810 H       1  LIG1        0.0000
@<TRIPOS>BOND
     1     1     2    1
     2     2     3    1
     3     2     4    1
     4     4     5   ar
     5     5     6   ar
     6     6     7   ar
     7     7     8    1
     8     8     9    1
     9     9    10    1
    10    10    11    1
    11    11    12   ar
    12    12    13   ar
    13    13    14   ar
    14    14    15   ar
    15    15    16    1
    16    16    17    1
    17    16    18    2
    18    16    19    2
    19    15    20   ar
    20    20    11   ar
    21    10    21    2
    22    21    22    1
    23    22    23    2
    24    23     9    1
    25    23    24    1
    26    24    25    1
    27    24    26    1
    28    26    27    1
    29    27    28    1
    30    28    29    1
    31    29    30    1
    32    30    31    1
    33    31    32    1
    34    32    27    1
    35     7    33   ar
    36    33    34   ar
    37    34     4   ar
    38     1    35    1
    39     1    36    1
    40     1    37    1
    41     3    38    1
    42     3    39    1
    43     3    40    1
    44     5    41    1
    45     6    42    1
    46     8    43    1
    47     8    44    1
    48    12    45    1
    49    13    46    1
    50    14    47    1
    51    17    48    1
    52    17    49    1
    53    17    50    1
    54    20    51    1
    55    25    52    1
    56    25    53    1
    57    25    54    1
    58    26    55    1
    59    26    56    1
    60    27    57    1
    61    28    58    1
    62    28    59    1
    63    29    60    1
    64    29    61    1
    65    30    62    1
    66    30    63    1
    67    31    64    1
    68    31    65    1
    69    32    66    1
    70    32    67    1
    71    33    68    1
