@<TRIPOS>MOLECULE
*****
 68 71 0 0 0
SMALL
USER_CHARGES

@<TRIPOS>ATOM
      1 C1         -3.7173    3.8844   -2.4999 C.3     1  LIG1        0.0000
      2 N2         -2.3201    4.2694   -2.2537 N.pl3   1  LIG1        0.0000
      3 C3         -1.7763    5.4917   -2.8629 C.3     1  LIG1        0.0000
      4 C4         -1.5077    3.4723   -1.4394 C.3     1  LIG1        0.0000
      5 C5         -0.7724    2.4515   -2.0332 C.3     1  LIG1        0.0000
      6 C6          0.0410    1.6525   -1.2365 C.3     1  LIG1        0.0000
      7 C7          0.1093    1.8779    0.1348 C.3     1  LIG1        0.0000
      8 C8          1.0000    1.0000    1.0000 C.3     1  LIG1        0.0000
      9 N9          1.8480    1.8480    1.8480 N.pl3   1  LIG1        0.0000
     10 C10         1.5330    2.3063    3.0881 C.2     1  LIG1        0.0000
     11 C11         0.3127    2.0507    3.8291 C.3     1  LIG1        0.0000
     12 C12        -0.6853    1.2669    3.2606 C.3     1  LIG1        0.0000
     13 C13        -1.8514    1.0268    3.9800 C.3     1  LIG1        0.0000
     14 C14        -2.0269    1.5602    5.2525 C.3     1  LIG1        0.0000
     15 C15        -1.0155    2.3411    5.8018 C.3     1  LIG1        0.0000
     16 S16        -1.2206    3.0154    7.3927 S.O2    1  LIG1        0.0000
     17 C17        -1.9989    4.6443    7.2618 C.3     1  LIG1        0.0000
     18 O18        -2.0570    2.1456    8.1786 O.2     1  LIG1        0.0000
     19 O19         0.0651    3.1474    8.0275 O.2     1  LIG1        0.0000
     20 C20         0.1587    2.5931    5.1003 C.3     1  LIG1        0.0000
     21 N21         2.5535    3.0182    3.4893 N.2     1  LIG1        0.0000
     22 N22         3.4846    3.0419    2.5523 N.2     1  LIG1        0.0000
     23 C23         3.0838    2.3239    1.5302 C.cat   1  LIG1        0.0000
     24 N24         3.7906    2.0937    0.3447 N.pl3   1  LIG1        0.0000
     25 C25         3.6299    3.0070   -0.7960 C.3     1  LIG1        0.0000
     26 C26         4.6937    0.9386    0.2399 C.3     1  LIG1        0.0000
     27 C27         4.8704    0.3076    1.6112 C.3     1  LIG1        0.0000
     28 C28         5.8027   -0.8896    1.5197 C.3     1  LIG1        0.0000
     29 C29         5.9820   -1.5167    2.8928 C.3     1  LIG1        0.0000
     30 C30         6.5456   -0.4980    3.8710 C.3     1  LIG1        0.0000
     31 C31         5.6068    0.6950    3.9590 C.3     1  LIG1        0.0000
     32 C32         5.4250    1.3302    2.5899 C.3     1  LIG1        0.0000
     33 C33        -0.6503    2.9140    0.6692 C.3     1  LIG1        0.0000
     34 N34        -1.4278    3.6748   -0.1155 N.pl3   1  LIG1        0.0000
     35 H          -4.1487    4.5597   -3.0980 H       1  LIG1        0.0000
     36 H          -3.7431    2.9859   -2.9383 H       1  LIG1        0.0000
     37 H          -4.2104    3.8455   -1.6308 H       1  LIG1        0.0000
     38 H          -2.4863    5.9363   -3.4089 H       1  LIG1        0.0000
     39 H          -1.4700    6.1149   -2.1433 H       1  LIG1        0.0000
     40 H          -1.0027    5.2554   -3.4508 H       1  LIG1        0.0000
     41 H          -0.8278    2.2944   -3.0192 H       1  LIG1        0.0000
     42 H           0.5768    0.9160   -1.6494 H       1  LIG1        0.0000
     43 H           0.4311    0.4143    1.5773 H       1  LIG1        0.0000
     44 H           1.5773    0.4311    0.4143 H       1  LIG1        0.0000
     45 H          -0.5661    0.8807    2.3459 H       1  LIG1        0.0000
     46 H          -2.5727    0.4635    3.5771 H       1  LIG1        0.0000
     47 H          -2.8677    1.3848    5.7647 H       1  LIG1        0.0000
     48 H          -1.4181    5.2484    6.7161 H       1  LIG1        0.0000
     49 H          -2.8918    4.5527    6.8210 H       1  LIG1        0.0000
     50 H          -2.1168    5.0319    8.1761 H       1  LIG1        0.0000
     51 H           0.8806    3.1553    5.5036 H       1  LIG1        0.0000
     52 H           4.2028    2.6968   -1.5546 H       1  LIG1        0.0000
     53 H           2.6722    3.0159   -1.0835 H       1  LIG1        0.0000
     54 H           3.9054    3.9295   -0.5257 H       1  LIG1        0.0000
     55 H           5.5824    1.2406   -0.1051 H       1  LIG1        0.0000
     56 H           4.3032    0.2661   -0.3887 H       1  LIG1        0.0000
     57 H           3.9786   -0.0028    1.9403 H       1  LIG1        0.0000
     58 H           6.6921   -0.5908    1.1736 H       1  LIG1        0.0000
     59 H           5.4123   -1.5661    0.8953 H       1  LIG1        0.0000
     60 H           6.6125   -2.2897    2.8223 H       1  LIG1        0.0000
     61 H           5.0960   -1.8386    3.2263 H       1  LIG1        0.0000
     62 H           7.4434   -0.1927    3.5536 H       1  LIG1        0.0000
     63 H           6.6363   -0.9180    4.7740 H       1  LIG1        0.0000
     64 H           4.7180    0.3900    4.3011 H       1  LIG1        0.0000
     65 H           5.9916    1.3712    4.5873 H       1  LIG1        0.0000
     66 H           4.7883    2.0978    2.6630 H       1  LIG1        0.0000
     67 H           6.3087    1.6605    2.2583 H       1  LIG1        0.0000
     68 H          -0.6161    3.0939    1.6523 H       1  LIG1        0.0000
@<TRIPOS>BOND
     1     1     2    1
     2     2     3    1
     3     2     4    1
     4     4     5   ar
     5     5     6   ar
     6     6     7   ar
     7     7     8    1
     8     8     9    1
     9     9    10    1
    10    10    11    1
    11    11    12   ar
    12    12    13   ar
    13    13    14   ar
    14    14    15   ar
    15    15    16    1
    16    16    17    1
    17    16    18    2
    18    16    19    2
    19    15    20   ar
    20    20    11   ar
    21    10    21    2
    22    21    22    1
    23    22    23    2
    24    23     9    1
    25    23    24    1
    26    24    25    1
    27    24    26    1
    28    26    27    1
    29    27    28    1
    30    28    29    1
    31    29    30    1
    32    30    31    1
    33    31    32    1
    34    32    27    1
    35     7    33   ar
    36    33    34   ar
    37    34     4   ar
    38     1    35    1
    39     1    36    1
    40     1    37    1
    41     3    38    1
    42     3    39    1
    43     3    40    1
    44     5    41    1
    45     6    42    1
    46     8    43    1
    47     8    44    1
    48    12    45    1
    49    13    46    1
    50    14    47    1
    51    17    48    1
    52    17    49    1
    53    17    50    1
    54    20    51    1
    55    25    52    1
    56    25    53    1
    57    25    54    1
    58    26    55    1
    59    26    56    1
    60    27    57    1
    61    28    58    1
    62    28    59    1
    63    29    60    1
    64    29    61    1
    65    30    62    1
    66    30    63    1
    67    31    64    1
    68    31    65    1
    69    32    66    1
    70    32    67    1
    71    33    68    1
