@<TRIPOS>MOLECULE

  29   30
SMALL
USER_CHARGES
@<TRIPOS>ATOM
   1 O1          -0.3664     1.2733     1.2733 O.3          1    LIG   0.0000
   2 C2           1.0000     1.0000     1.0000 C.3          1    LIG   0.0000
   3 C3           1.8776     1.8776     1.8776 C.3          1    LIG   0.0000
   4 N4           1.5953     3.2887     1.5953 N.pl3        1    LIG   0.0000
   5 C5           0.4268     3.9548     2.1768 C.3          1    LIG   0.0000
   6 C6          -0.2253     4.7505     1.0566 C.3          1    LIG   0.0000
   7 C7          -0.4209     3.8348    -0.1410 C.2          1    LIG   0.0000
   8 C8           0.6304     3.5906    -0.9042 C.2          1    LIG   0.0000
   9 C9           1.9053     4.1875    -0.5615 C.ar         1    LIG   0.0000
  10 C10          2.6322     4.9048    -1.5028 C.ar         1    LIG   0.0000
  11 C11          3.8527     5.4826    -1.1707 C.ar         1    LIG   0.0000
  12 C12          4.3547     5.3423     0.1184 C.ar         1    LIG   0.0000
  13 C13          3.6221     4.6210     1.0561 C.ar         1    LIG   0.0000
  14 C14          2.4035     4.0372     0.7256 C.ar         1    LIG   0.0000
  15 H           -0.9437     0.6959     0.6959 H            1    LIG   0.0000
  16 H            1.1925     1.1925     0.0377 H            1    LIG   0.0000
  17 H            1.1925     0.0377     1.1925 H            1    LIG   0.0000
  18 H            1.6851     1.6851     2.8398 H            1    LIG   0.0000
  19 H            2.8398     1.6851     1.6851 H            1    LIG   0.0000
  20 H            0.7109     4.5673     2.9144 H            1    LIG   0.0000
  21 H           -0.2138     3.2758     2.5354 H            1    LIG   0.0000
  22 H           -1.1115     5.0983     1.3626 H            1    LIG   0.0000
  23 H            0.3637     5.5173     0.8014 H            1    LIG   0.0000
  24 H           -1.3132     3.4316    -0.3443 H            1    LIG   0.0000
  25 H            0.5469     3.0013    -1.7079 H            1    LIG   0.0000
  26 H            2.2735     5.0071    -2.4307 H            1    LIG   0.0000
  27 H            4.3675     5.9970    -1.8564 H            1    LIG   0.0000
  28 H            5.2308     5.7544     0.3684 H            1    LIG   0.0000
  29 H            3.9783     4.5204     1.9851 H            1    LIG   0.0000
@<TRIPOS>BOND
   1        1        2 1
   2        2        3 1
   3        3        4 1
   4        4        5 1
   5        5        6 1
   6        6        7 1
   7        7        8 2
   8        8        9 1
   9        9       10 ar
  10       10       11 ar
  11       11       12 ar
  12       12       13 ar
  13       13       14 ar
  14       14        9 ar
  15       14        4 1
  16        1       15 1
  17        2       16 1
  18        2       17 1
  19        3       18 1
  20        3       19 1
  21        5       20 1
  22        5       21 1
  23        6       22 1
  24        6       23 1
  25        7       24 1
  26        8       25 1
  27       10       26 1
  28       11       27 1
  29       12       28 1
  30       13       29 1

@<TRIPOS>MOLECULE

  29   30
SMALL
USER_CHARGES
@<TRIPOS>ATOM
   1 O1          -0.3664     1.2733     1.2733 O.3          1    LIG   0.0000
   2 C2           1.0000     1.0000     1.0000 C.3          1    LIG   0.0000
   3 C3           1.8776     1.8776     1.8776 C.3          1    LIG   0.0000
   4 N4           1.5953     3.2887     1.5953 N.pl3        1    LIG   0.0000
   5 C5           2.1768     3.9548     0.4268 C.3          1    LIG   0.0000
   6 C6           2.6927     5.3036     0.9041 C.3          1    LIG   0.0000
   7 C7           3.5598     5.0859     2.1336 C.2          1    LIG   0.0000
   8 C8           2.9475     4.8927     3.2892 C.2          1    LIG   0.0000
   9 C9           1.4993     4.8841     3.3278 C.ar         1    LIG   0.0000
  10 C10          0.8057     5.6852     4.2257 C.ar         1    LIG   0.0000
  11 C11         -0.5845     5.6807     4.2573 C.ar         1    LIG   0.0000
  12 C12         -1.2922     4.8654     3.3810 C.ar         1    LIG   0.0000
  13 C13         -0.5911     4.0642     2.4851 C.ar         1    LIG   0.0000
  14 C14          0.7996     4.0623     2.4546 C.ar         1    LIG   0.0000
  15 H           -0.9437     0.6959     0.6959 H            1    LIG   0.0000
  16 H            1.1925     1.1925     0.0377 H            1    LIG   0.0000
  17 H            1.1925     0.0377     1.1925 H            1    LIG   0.0000
  18 H            1.6851     1.6851     2.8398 H            1    LIG   0.0000
  19 H            2.8398     1.6851     1.6851 H            1    LIG   0.0000
  20 H            1.4801     4.0824    -0.2791 H            1    LIG   0.0000
  21 H            2.9291     3.4089     0.0579 H            1    LIG   0.0000
  22 H            3.2352     5.7314     0.1811 H            1    LIG   0.0000
  23 H            1.9213     5.8959     1.1367 H            1    LIG   0.0000
  24 H            4.5578     5.0888     2.0706 H            1    LIG   0.0000
  25 H            3.4772     4.7542     4.1260 H            1    LIG   0.0000
  26 H            1.3122     6.2724     4.8571 H            1    LIG   0.0000
  27 H           -1.0736     6.2617     4.9079 H            1    LIG   0.0000
  28 H           -2.2920     4.8550     3.3944 H            1    LIG   0.0000
  29 H           -1.0965     3.4787     1.8512 H            1    LIG   0.0000
@<TRIPOS>BOND
   1        1        2 1
   2        2        3 1
   3        3        4 1
   4        4        5 1
   5        5        6 1
   6        6        7 1
   7        7        8 2
   8        8        9 1
   9        9       10 ar
  10       10       11 ar
  11       11       12 ar
  12       12       13 ar
  13       13       14 ar
  14       14        9 ar
  15       14        4 1
  16        1       15 1
  17        2       16 1
  18        2       17 1
  19        3       18 1
  20        3       19 1
  21        5       20 1
  22        5       21 1
  23        6       22 1
  24        6       23 1
  25        7       24 1
  26        8       25 1
  27       10       26 1
  28       11       27 1
  29       12       28 1
  30       13       29 1

@<TRIPOS>MOLECULE

  29   30
SMALL
USER_CHARGES
@<TRIPOS>ATOM
   1 O1          -0.3664     1.2733     1.2733 O.3          1    LIG   0.0000
   2 C2           1.0000     1.0000     1.0000 C.3          1    LIG   0.0000
   3 C3           1.8776     1.8776     1.8776 C.3          1    LIG   0.0000
   4 N4           1.5953     3.2887     1.5953 N.pl3        1    LIG   0.0000
   5 C5           2.1379     4.3509     2.4465 C.3          1    LIG   0.0000
   6 C6           1.0002     5.3258     2.7079 C.3          1    LIG   0.0000
   7 C7          -0.2105     4.5432     3.1903 C.2          1    LIG   0.0000
   8 C8          -0.9360     3.9144     2.2815 C.2          1    LIG   0.0000
   9 C9          -0.5420     3.9882     0.8893 C.ar         1    LIG   0.0000
  10 C10         -1.4505     4.3711    -0.0890 C.ar         1    LIG   0.0000
  11 C11         -1.0692     4.4475    -1.4241 C.ar         1    LIG   0.0000
  12 C12          0.2366     4.1374    -1.7878 C.ar         1    LIG   0.0000
  13 C13          1.1412     3.7530    -0.8029 C.ar         1    LIG   0.0000
  14 C14          0.7616     3.6703     0.5328 C.ar         1    LIG   0.0000
  15 H           -0.9437     0.6959     0.6959 H            1    LIG   0.0000
  16 H            1.1925     1.1925     0.0377 H            1    LIG   0.0000
  17 H            1.1925     0.0377     1.1925 H            1    LIG   0.0000
  18 H            1.6851     1.6851     2.8398 H            1    LIG   0.0000
  19 H            2.8398     1.6851     1.6851 H            1    LIG   0.0000
  20 H            2.8900     4.8162     1.9797 H            1    LIG   0.0000
  21 H            2.4676     3.9668     3.3089 H            1    LIG   0.0000
  22 H            1.2757     5.9848     3.4078 H            1    LIG   0.0000
  23 H            0.7725     5.8115     1.8639 H            1    LIG   0.0000
  24 H           -0.4496     4.5053     4.1605 H            1    LIG   0.0000
  25 H           -1.7464     3.3945     2.5516 H            1    LIG   0.0000
  26 H           -2.3902     4.5945     0.1699 H            1    LIG   0.0000
  27 H           -1.7316     4.7245    -2.1201 H            1    LIG   0.0000
  28 H            0.5218     4.1899    -2.7448 H            1    LIG   0.0000
  29 H            2.0820     3.5321    -1.0601 H            1    LIG   0.0000
@<TRIPOS>BOND
   1        1        2 1
   2        2        3 1
   3        3        4 1
   4        4        5 1
   5        5        6 1
   6        6        7 1
   7        7        8 2
   8        8        9 1
   9        9       10 ar
  10       10       11 ar
  11       11       12 ar
  12       12       13 ar
  13       13       14 ar
  14       14        9 ar
  15       14        4 1
  16        1       15 1
  17        2       16 1
  18        2       17 1
  19        3       18 1
  20        3       19 1
  21        5       20 1
  22        5       21 1
  23        6       22 1
  24        6       23 1
  25        7       24 1
  26        8       25 1
  27       10       26 1
  28       11       27 1
  29       12       28 1
  30       13       29 1

@<TRIPOS>MOLECULE

  29   30
SMALL
USER_CHARGES
@<TRIPOS>ATOM
   1 O1          -0.3664     1.2733     1.2733 O.3          1    LIG   0.0000
   2 C2           1.0000     1.0000     1.0000 C.3          1    LIG   0.0000
   3 C3           1.8776     1.8776     1.8776 C.3          1    LIG   0.0000
   4 N4           1.5944     3.2933     1.5944 N.pl3        1    LIG   0.0000
   5 C5           0.4122     3.9351     2.1935 C.3          1    LIG   0.0000
   6 C6          -0.7667     3.9939     1.2330 C.3          1    LIG   0.0000
   7 C7          -0.5933     5.1211     0.2193 C.2          1    LIG   0.0000
   8 C8           0.5499     5.5735    -0.3124 C.2          1    LIG   0.0000
   9 C9           1.9221     5.1162    -0.0935 C.ar         1    LIG   0.0000
  10 C10          2.8431     5.8349    -0.8366 C.ar         1    LIG   0.0000
  11 C11          4.2026     5.5529    -0.7563 C.ar         1    LIG   0.0000
  12 C12          4.6621     4.5444     0.0842 C.ar         1    LIG   0.0000
  13 C13          3.7619     3.8148     0.8505 C.ar         1    LIG   0.0000
  14 C14          2.4001     4.0982     0.7640 C.ar         1    LIG   0.0000
  15 H           -0.9437     0.6959     0.6959 H            1    LIG   0.0000
  16 H            1.1925     1.1925     0.0377 H            1    LIG   0.0000
  17 H            1.1925     0.0377     1.1925 H            1    LIG   0.0000
  18 H            1.6851     1.6851     2.8398 H            1    LIG   0.0000
  19 H            2.8398     1.6851     1.6851 H            1    LIG   0.0000
  20 H            0.6545     4.8675     2.4617 H            1    LIG   0.0000
  21 H            0.1407     3.4152     3.0035 H            1    LIG   0.0000
  22 H           -0.8345     3.1235     0.7453 H            1    LIG   0.0000
  23 H           -1.6055     4.1499     1.7546 H            1    LIG   0.0000
  24 H           -1.4312     5.5753    -0.0836 H            1    LIG   0.0000
  25 H            0.4508     6.3352    -0.9527 H            1    LIG   0.0000
  26 H            2.5263     6.5670    -1.4396 H            1    LIG   0.0000
  27 H            4.8529     6.0778    -1.3055 H            1    LIG   0.0000
  28 H            5.6405     4.3446     0.1368 H            1    LIG   0.0000
  29 H            4.0884     3.0919     1.4595 H            1    LIG   0.0000
@<TRIPOS>BOND
   1        1        2 1
   2        2        3 1
   3        3        4 1
   4        4        5 1
   5        5        6 1
   6        6        7 1
   7        7        8 2
   8        8        9 1
   9        9       10 ar
  10       10       11 ar
  11       11       12 ar
  12       12       13 ar
  13       13       14 ar
  14       14        9 ar
  15       14        4 1
  16        1       15 1
  17        2       16 1
  18        2       17 1
  19        3       18 1
  20        3       19 1
  21        5       20 1
  22        5       21 1
  23        6       22 1
  24        6       23 1
  25        7       24 1
  26        8       25 1
  27       10       26 1
  28       11       27 1
  29       12       28 1
  30       13       29 1

@<TRIPOS>MOLECULE

  29   30
SMALL
USER_CHARGES
@<TRIPOS>ATOM
   1 O1          -0.3664     1.2733     1.2733 O.3          1    LIG   0.0000
   2 C2           1.0000     1.0000     1.0000 C.3          1    LIG   0.0000
   3 C3           1.8776     1.8776     1.8776 C.3          1    LIG   0.0000
   4 N4           1.5944     3.2933     1.5944 N.pl3        1    LIG   0.0000
   5 C5           2.1935     3.9351     0.4122 C.3          1    LIG   0.0000
   6 C6           3.4388     4.7396     0.7558 C.3          1    LIG   0.0000
   7 C7           3.0700     6.0848     1.3744 C.2          1    LIG   0.0000
   8 C8           2.0224     6.3627     2.1615 C.2          1    LIG   0.0000
   9 C9           0.9696     5.4756     2.6559 C.ar         1    LIG   0.0000
  10 C10          0.0560     6.1366     3.4592 C.ar         1    LIG   0.0000
  11 C11         -1.0247     5.4622     4.0174 C.ar         1    LIG   0.0000
  12 C12         -1.2111     4.1066     3.7680 C.ar         1    LIG   0.0000
  13 C13         -0.3168     3.4202     2.9561 C.ar         1    LIG   0.0000
  14 C14          0.7668     4.0992     2.4020 C.ar         1    LIG   0.0000
  15 H           -0.9437     0.6959     0.6959 H            1    LIG   0.0000
  16 H            1.1925     1.1925     0.0377 H            1    LIG   0.0000
  17 H            1.1925     0.0377     1.1925 H            1    LIG   0.0000
  18 H            1.6851     1.6851     2.8398 H            1    LIG   0.0000
  19 H            2.8398     1.6851     1.6851 H            1    LIG   0.0000
  20 H            1.5179     4.5484     0.0031 H            1    LIG   0.0000
  21 H            2.4418     3.2253    -0.2470 H            1    LIG   0.0000
  22 H            3.9930     4.2214     1.4073 H            1    LIG   0.0000
  23 H            3.9663     4.8975    -0.0789 H            1    LIG   0.0000
  24 H            3.6820     6.8482     1.1681 H            1    LIG   0.0000
  25 H            1.9493     7.3162     2.4540 H            1    LIG   0.0000
  26 H            0.1748     7.1128     3.6406 H            1    LIG   0.0000
  27 H           -1.6709     5.9543     4.6007 H            1    LIG   0.0000
  28 H           -1.9888     3.6260     4.1733 H            1    LIG   0.0000
  29 H           -0.4497     2.4465     2.7706 H            1    LIG   0.0000
@<TRIPOS>BOND
   1        1        2 1
   2        2        3 1
   3        3        4 1
   4        4        5 1
   5        5        6 1
   6        6        7 1
   7        7        8 2
   8        8        9 1
   9        9       10 ar
  10       10       11 ar
  11       11       12 ar
  12       12       13 ar
  13       13       14 ar
  14       14        9 ar
  15       14        4 1
  16        1       15 1
  17        2       16 1
  18        2       17 1
  19        3       18 1
  20        3       19 1
  21        5       20 1
  22        5       21 1
  23        6       22 1
  24        6       23 1
  25        7       24 1
  26        8       25 1
  27       10       26 1
  28       11       27 1
  29       12       28 1
  30       13       29 1

@<TRIPOS>MOLECULE

  29   30
SMALL
USER_CHARGES
@<TRIPOS>ATOM
   1 O1          -0.3664     1.2733     1.2733 O.3          1    LIG   0.0000
   2 C2           1.0000     1.0000     1.0000 C.3          1    LIG   0.0000
   3 C3           1.8776     1.8776     1.8776 C.3          1    LIG   0.0000
   4 N4           1.5934     3.2985     1.5934 N.pl3        1    LIG   0.0000
   5 C5           0.4269     3.9642     2.1736 C.3          1    LIG   0.0000
   6 C6           0.8389     4.6477     3.4679 C.3          1    LIG   0.0000
   7 C7           1.5168     5.9853     3.1730 C.2          1    LIG   0.0000
   8 C8           2.2744     6.2788     2.1167 C.2          1    LIG   0.0000
   9 C9           2.6669     5.4522     0.9731 C.ar         1    LIG   0.0000
  10 C10          3.4139     6.1845     0.0635 C.ar         1    LIG   0.0000
  11 C11          3.8830     5.5291    -1.0703 C.ar         1    LIG   0.0000
  12 C12          3.6056     4.1833    -1.2880 C.ar         1    LIG   0.0000
  13 C13          2.8447     3.4517    -0.3877 C.ar         1    LIG   0.0000
  14 C14          2.3818     4.1063     0.7454 C.ar         1    LIG   0.0000
  15 H           -0.9437     0.6959     0.6959 H            1    LIG   0.0000
  16 H            1.1925     1.1925     0.0377 H            1    LIG   0.0000
  17 H            1.1925     0.0377     1.1925 H            1    LIG   0.0000
  18 H            1.6851     1.6851     2.8398 H            1    LIG   0.0000
  19 H            2.8398     1.6851     1.6851 H            1    LIG   0.0000
  20 H           -0.2849     3.2880     2.3635 H            1    LIG   0.0000
  21 H            0.0762     4.6459     1.5314 H            1    LIG   0.0000
  22 H            0.0268     4.8069     4.0292 H            1    LIG   0.0000
  23 H            1.4763     4.0577     3.9635 H            1    LIG   0.0000
  24 H            1.3775     6.7156     3.8417 H            1    LIG   0.0000
  25 H            2.6321     7.2126     2.1026 H            1    LIG   0.0000
  26 H            3.6092     7.1531     0.2174 H            1    LIG   0.0000
  27 H            4.4285     6.0335    -1.7397 H            1    LIG   0.0000
  28 H            3.9611     3.7352    -2.1083 H            1    LIG   0.0000
  29 H            2.6371     2.4869    -0.5494 H            1    LIG   0.0000
@<TRIPOS>BOND
   1        1        2 1
   2        2        3 1
   3        3        4 1
   4        4        5 1
   5        5        6 1
   6        6        7 1
   7        7        8 2
   8        8        9 1
   9        9       10 ar
  10       10       11 ar
  11       11       12 ar
  12       12       13 ar
  13       13       14 ar
  14       14        9 ar
  15       14        4 1
  16        1       15 1
  17        2       16 1
  18        2       17 1
  19        3       18 1
  20        3       19 1
  21        5       20 1
  22        5       21 1
  23        6       22 1
  24        6       23 1
  25        7       24 1
  26        8       25 1
  27       10       26 1
  28       11       27 1
  29       12       28 1
  30       13       29 1

@<TRIPOS>MOLECULE

  29   30
SMALL
USER_CHARGES
@<TRIPOS>ATOM
   1 O1          -0.3664     1.2733     1.2733 O.3          1    LIG   0.0000
   2 C2           1.0000     1.0000     1.0000 C.3          1    LIG   0.0000
   3 C3           1.8776     1.8776     1.8776 C.3          1    LIG   0.0000
   4 N4           1.5934     3.2985     1.5934 N.pl3        1    LIG   0.0000
   5 C5           2.1736     3.9642     0.4269 C.3          1    LIG   0.0000
   6 C6           1.1925     3.8785    -0.7317 C.3          1    LIG   0.0000
   7 C7           0.1115     4.9503    -0.5964 C.2          1    LIG   0.0000
   8 C8          -0.3990     5.4284     0.5380 C.2          1    LIG   0.0000
   9 C9          -0.0940     5.0914     1.9303 C.ar         1    LIG   0.0000
  10 C10         -0.8195     5.8860     2.8044 C.ar         1    LIG   0.0000
  11 C11         -0.6565     5.6690     4.1687 C.ar         1    LIG   0.0000
  12 C12          0.2123     4.6905     4.6412 C.ar         1    LIG   0.0000
  13 C13          0.9520     3.9046     3.7695 C.ar         1    LIG   0.0000
  14 C14          0.7840     4.1193     2.4084 C.ar         1    LIG   0.0000
  15 H           -0.9437     0.6959     0.6959 H            1    LIG   0.0000
  16 H            1.1925     1.1925     0.0377 H            1    LIG   0.0000
  17 H            1.1925     0.0377     1.1925 H            1    LIG   0.0000
  18 H            1.6851     1.6851     2.8398 H            1    LIG   0.0000
  19 H            2.8398     1.6851     1.6851 H            1    LIG   0.0000
  20 H            3.0298     3.5132     0.1750 H            1    LIG   0.0000
  21 H            2.3534     4.9237     0.6436 H            1    LIG   0.0000
  22 H            1.6852     4.0145    -1.5912 H            1    LIG   0.0000
  23 H            0.7626     2.9756    -0.7332 H            1    LIG   0.0000
  24 H           -0.2500     5.3324    -1.4469 H            1    LIG   0.0000
  25 H           -1.1026     6.1291     0.4197 H            1    LIG   0.0000
  26 H           -1.4404     6.5926     2.4649 H            1    LIG   0.0000
  27 H           -1.1720     6.2254     4.8204 H            1    LIG   0.0000
  28 H            0.3053     4.5512     5.6271 H            1    LIG   0.0000
  29 H            1.5838     3.2081     4.1096 H            1    LIG   0.0000
@<TRIPOS>BOND
   1        1        2 1
   2        2        3 1
   3        3        4 1
   4        4        5 1
   5        5        6 1
   6        6        7 1
   7        7        8 2
   8        8        9 1
   9        9       10 ar
  10       10       11 ar
  11       11       12 ar
  12       12       13 ar
  13       13       14 ar
  14       14        9 ar
  15       14        4 1
  16        1       15 1
  17        2       16 1
  18        2       17 1
  19        3       18 1
  20        3       19 1
  21        5       20 1
  22        5       21 1
  23        6       22 1
  24        6       23 1
  25        7       24 1
  26        8       25 1
  27       10       26 1
  28       11       27 1
  29       12       28 1
  30       13       29 1

@<TRIPOS>MOLECULE

  29   30
SMALL
USER_CHARGES
@<TRIPOS>ATOM
   1 O1          -0.3664     1.2733     1.2733 O.3          1    LIG   0.0000
   2 C2           1.0000     1.0000     1.0000 C.3          1    LIG   0.0000
   3 C3           1.8776     1.8776     1.8776 C.3          1    LIG   0.0000
   4 N4           1.5934     3.2987     1.5934 N.pl3        1    LIG   0.0000
   5 C5           2.6311     4.2669     1.9923 C.3          1    LIG   0.0000
   6 C6           2.5939     5.5684     1.1939 C.3          1    LIG   0.0000
   7 C7           2.5745     5.3378    -0.3118 C.2          1    LIG   0.0000
   8 C8           1.5514     4.7828    -0.9377 C.2          1    LIG   0.0000
   9 C9           0.3633     4.3132    -0.2407 C.ar         1    LIG   0.0000
  10 C10         -0.8293     4.6343    -0.8777 C.ar         1    LIG   0.0000
  11 C11         -2.0358     4.2686    -0.2907 C.ar         1    LIG   0.0000
  12 C12         -2.0461     3.5850     0.9208 C.ar         1    LIG   0.0000
  13 C13         -0.8448     3.2632     1.5445 C.ar         1    LIG   0.0000
  14 C14          0.3727     3.6177     0.9731 C.ar         1    LIG   0.0000
  15 H           -0.9437     0.6959     0.6959 H            1    LIG   0.0000
  16 H            1.1925     1.1925     0.0377 H            1    LIG   0.0000
  17 H            1.1925     0.0377     1.1925 H            1    LIG   0.0000
  18 H            1.6851     1.6851     2.8398 H            1    LIG   0.0000
  19 H            2.8398     1.6851     1.6851 H            1    LIG   0.0000
  20 H            3.5268     3.8417     1.8619 H            1    LIG   0.0000
  21 H            2.5038     4.4859     2.9597 H            1    LIG   0.0000
  22 H            1.7716     6.0767     1.4497 H            1    LIG   0.0000
  23 H            3.4041     6.1075     1.4240 H            1    LIG   0.0000
  24 H            3.3697     5.6183    -0.8494 H            1    LIG   0.0000
  25 H            1.5955     4.6812    -1.9316 H            1    LIG   0.0000
  26 H           -0.8200     5.1236    -1.7498 H            1    LIG   0.0000
  27 H           -2.8987     4.4979    -0.7409 H            1    LIG   0.0000
  28 H           -2.9149     3.3255     1.3424 H            1    LIG   0.0000
  29 H           -0.8568     2.7707     2.4148 H            1    LIG   0.0000
@<TRIPOS>BOND
   1        1        2 1
   2        2        3 1
   3        3        4 1
   4        4        5 1
   5        5        6 1
   6        6        7 1
   7        7        8 2
   8        8        9 1
   9        9       10 ar
  10       10       11 ar
  11       11       12 ar
  12       12       13 ar
  13       13       14 ar
  14       14        9 ar
  15       14        4 1
  16        1       15 1
  17        2       16 1
  18        2       17 1
  19        3       18 1
  20        3       19 1
  21        5       20 1
  22        5       21 1
  23        6       22 1
  24        6       23 1
  25        7       24 1
  26        8       25 1
  27       10       26 1
  28       11       27 1
  29       12       28 1
  30       13       29 1

@<TRIPOS>MOLECULE

  29   30
SMALL
USER_CHARGES
@<TRIPOS>ATOM
   1 O1          -0.3664     1.2733     1.2733 O.3          1    LIG   0.0000
   2 C2           1.0000     1.0000     1.0000 C.3          1    LIG   0.0000
   3 C3           1.8776     1.8776     1.8776 C.3          1    LIG   0.0000
   4 N4           1.2931     3.2250     1.9640 N.pl3        1    LIG   0.0000
   5 C5           1.3093     3.9465     3.2476 C.3          1    LIG   0.0000
   6 C6          -0.0128     3.8365     3.9931 C.3          1    LIG   0.0000
   7 C7          -1.0551     4.7831     3.4049 C.2          1    LIG   0.0000
   8 C8          -1.1946     5.1515     2.1246 C.2          1    LIG   0.0000
   9 C9          -0.4197     4.7482     0.9514 C.ar         1    LIG   0.0000
  10 C10         -0.8761     5.3427    -0.2128 C.ar         1    LIG   0.0000
  11 C11         -0.2603     5.0893    -1.4339 C.ar         1    LIG   0.0000
  12 C12          0.8364     4.2367    -1.5036 C.ar         1    LIG   0.0000
  13 C13          1.3234     3.6354    -0.3498 C.ar         1    LIG   0.0000
  14 C14          0.7009     3.8892     0.8710 C.ar         1    LIG   0.0000
  15 H           -0.9437     0.6959     0.6959 H            1    LIG   0.0000
  16 H            1.1925     1.1925     0.0377 H            1    LIG   0.0000
  17 H            1.1925     0.0377     1.1925 H            1    LIG   0.0000
  18 H            1.9363     1.4803     2.7934 H            1    LIG   0.0000
  19 H            2.7934     1.9363     1.4803 H            1    LIG   0.0000
  20 H            1.4985     4.9123     3.0705 H            1    LIG   0.0000
  21 H            2.0339     3.5646     3.8213 H            1    LIG   0.0000
  22 H           -0.3492     2.8973     3.9249 H            1    LIG   0.0000
  23 H            0.1339     4.0690     4.9546 H            1    LIG   0.0000
  24 H           -1.7108     5.1741     4.0508 H            1    LIG   0.0000
  25 H           -1.9371     5.7967     1.9446 H            1    LIG   0.0000
  26 H           -1.6595     5.9630    -0.1752 H            1    LIG   0.0000
  27 H           -0.6078     5.5222    -2.2657 H            1    LIG   0.0000
  28 H            1.2743     4.0565    -2.3843 H            1    LIG   0.0000
  29 H            2.1145     3.0254    -0.3948 H            1    LIG   0.0000
@<TRIPOS>BOND
   1        1        2 1
   2        2        3 1
   3        3        4 1
   4        4        5 1
   5        5        6 1
   6        6        7 1
   7        7        8 2
   8        8        9 1
   9        9       10 ar
  10       10       11 ar
  11       11       12 ar
  12       12       13 ar
  13       13       14 ar
  14       14        9 ar
  15       14        4 1
  16        1       15 1
  17        2       16 1
  18        2       17 1
  19        3       18 1
  20        3       19 1
  21        5       20 1
  22        5       21 1
  23        6       22 1
  24        6       23 1
  25        7       24 1
  26        8       25 1
  27       10       26 1
  28       11       27 1
  29       12       28 1
  30       13       29 1

@<TRIPOS>MOLECULE

  29   30
SMALL
USER_CHARGES
@<TRIPOS>ATOM
   1 O1          -0.3664     1.2733     1.2733 O.3          1    LIG   0.0000
   2 C2           1.0000     1.0000     1.0000 C.3          1    LIG   0.0000
   3 C3           1.8776     1.8776     1.8776 C.3          1    LIG   0.0000
   4 N4           1.1772     3.1464     2.1618 N.pl3        1    LIG   0.0000
   5 C5           0.8133     3.3928     3.5690 C.3          1    LIG   0.0000
   6 C6           0.6531     4.8730     3.9101 C.3          1    LIG   0.0000
   7 C7           1.8459     5.7129     3.4717 C.2          1    LIG   0.0000
   8 C8           2.1517     5.9139     2.2017 C.2          1    LIG   0.0000
   9 C9           1.3943     5.3251     1.1073 C.ar         1    LIG   0.0000
  10 C10          1.1536     6.1979     0.0531 C.ar         1    LIG   0.0000
  11 C11          0.4099     5.7609    -1.0376 C.ar         1    LIG   0.0000
  12 C12         -0.0844     4.4610    -1.0723 C.ar         1    LIG   0.0000
  13 C13          0.1699     3.5950    -0.0136 C.ar         1    LIG   0.0000
  14 C14          0.9135     4.0116     1.0855 C.ar         1    LIG   0.0000
  15 H           -0.9437     0.6959     0.6959 H            1    LIG   0.0000
  16 H            1.1925     1.1925     0.0377 H            1    LIG   0.0000
  17 H            1.1925     0.0377     1.1925 H            1    LIG   0.0000
  18 H            2.0700     1.4034     2.7367 H            1    LIG   0.0000
  19 H            2.7367     2.0700     1.4034 H            1    LIG   0.0000
  20 H            1.5296     3.0099     4.1524 H            1    LIG   0.0000
  21 H           -0.0529     2.9297     3.7571 H            1    LIG   0.0000
  22 H           -0.1664     5.2191     3.4533 H            1    LIG   0.0000
  23 H            0.5459     4.9628     4.9002 H            1    LIG   0.0000
  24 H            2.4221     6.1299     4.1746 H            1    LIG   0.0000
  25 H            2.9360     6.4947     1.9838 H            1    LIG   0.0000
  26 H            1.5118     7.1312     0.0785 H            1    LIG   0.0000
  27 H            0.2297     6.3830    -1.7995 H            1    LIG   0.0000
  28 H           -0.6213     4.1498    -1.8565 H            1    LIG   0.0000
  29 H           -0.1864     2.6611    -0.0432 H            1    LIG   0.0000
@<TRIPOS>BOND
   1        1        2 1
   2        2        3 1
   3        3        4 1
   4        4        5 1
   5        5        6 1
   6        6        7 1
   7        7        8 2
   8        8        9 1
   9        9       10 ar
  10       10       11 ar
  11       11       12 ar
  12       12       13 ar
  13       13       14 ar
  14       14        9 ar
  15       14        4 1
  16        1       15 1
  17        2       16 1
  18        2       17 1
  19        3       18 1
  20        3       19 1
  21        5       20 1
  22        5       21 1
  23        6       22 1
  24        6       23 1
  25        7       24 1
  26        8       25 1
  27       10       26 1
  28       11       27 1
  29       12       28 1
  30       13       29 1

@<TRIPOS>MOLECULE

  29   30
SMALL
USER_CHARGES
@<TRIPOS>ATOM
   1 O1          -0.3664     1.2733     1.2733 O.3          1    LIG   0.0000
   2 C2           1.0000     1.0000     1.0000 C.3          1    LIG   0.0000
   3 C3           1.8776     1.8776     1.8776 C.3          1    LIG   0.0000
   4 N4           1.1772     3.1464     2.1618 N.pl3        1    LIG   0.0000
   5 C5           0.5193     3.8022     1.0170 C.3          1    LIG   0.0000
   6 C6          -0.6329     4.7216     1.4171 C.3          1    LIG   0.0000
   7 C7          -1.6355     4.0442     2.3425 C.2          1    LIG   0.0000
   8 C8          -1.3371     3.6800     3.5774 C.2          1    LIG   0.0000
   9 C9          -0.0139     3.8652     4.1544 C.ar         1    LIG   0.0000
  10 C10         -0.0286     4.3335     5.4627 C.ar         1    LIG   0.0000
  11 C11          1.1760     4.5824     6.1113 C.ar         1    LIG   0.0000
  12 C12          2.3829     4.3605     5.4560 C.ar         1    LIG   0.0000
  13 C13          2.3837     3.8845     4.1487 C.ar         1    LIG   0.0000
  14 C14          1.1900     3.6272     3.4828 C.ar         1    LIG   0.0000
  15 H           -0.9437     0.6959     0.6959 H            1    LIG   0.0000
  16 H            1.1925     1.1925     0.0377 H            1    LIG   0.0000
  17 H            1.1925     0.0377     1.1925 H            1    LIG   0.0000
  18 H            2.0700     1.4034     2.7367 H            1    LIG   0.0000
  19 H            2.7367     2.0700     1.4034 H            1    LIG   0.0000
  20 H            0.1614     3.0931     0.4095 H            1    LIG   0.0000
  21 H            1.2023     4.3457     0.5290 H            1    LIG   0.0000
  22 H           -0.2560     5.5210     1.8849 H            1    LIG   0.0000
  23 H           -1.1102     5.0145     0.5886 H            1    LIG   0.0000
  24 H           -2.5587     3.8675     2.0011 H            1    LIG   0.0000
  25 H           -2.0502     3.2598     4.1386 H            1    LIG   0.0000
  26 H           -0.8970     4.4901     5.9331 H            1    LIG   0.0000
  27 H            1.1747     4.9219     7.0519 H            1    LIG   0.0000
  28 H            3.2479     4.5428     5.9235 H            1    LIG   0.0000
  29 H            3.2536     3.7255     3.6818 H            1    LIG   0.0000
@<TRIPOS>BOND
   1        1        2 1
   2        2        3 1
   3        3        4 1
   4        4        5 1
   5        5        6 1
   6        6        7 1
   7        7        8 2
   8        8        9 1
   9        9       10 ar
  10       10       11 ar
  11       11       12 ar
  12       12       13 ar
  13       13       14 ar
  14       14        9 ar
  15       14        4 1
  16        1       15 1
  17        2       16 1
  18        2       17 1
  19        3       18 1
  20        3       19 1
  21        5       20 1
  22        5       21 1
  23        6       22 1
  24        6       23 1
  25        7       24 1
  26        8       25 1
  27       10       26 1
  28       11       27 1
  29       12       28 1
  30       13       29 1

@<TRIPOS>MOLECULE

  29   30
SMALL
USER_CHARGES
@<TRIPOS>ATOM
   1 O1          -0.3664     1.2733     1.2733 O.3          1    LIG   0.0000
   2 C2           1.0000     1.0000     1.0000 C.3          1    LIG   0.0000
   3 C3           1.8776     1.8776     1.8776 C.3          1    LIG   0.0000
   4 N4           1.1772     3.1464     2.1618 N.pl3        1    LIG   0.0000
   5 C5           1.7906     4.3701     1.6144 C.3          1    LIG   0.0000
   6 C6           0.7988     5.5135     1.4096 C.3          1    LIG   0.0000
   7 C7          -0.4361     5.0912     0.6239 C.2          1    LIG   0.0000
   8 C8          -1.3292     4.2399     1.0974 C.2          1    LIG   0.0000
   9 C9          -1.1974     3.6049     2.4003 C.ar         1    LIG   0.0000
  10 C10         -2.3802     3.5584     3.1283 C.ar         1    LIG   0.0000
  11 C11         -2.3742     3.0051     4.4041 C.ar         1    LIG   0.0000
  12 C12         -1.1952     2.5005     4.9428 C.ar         1    LIG   0.0000
  13 C13         -0.0193     2.5465     4.2005 C.ar         1    LIG   0.0000
  14 C14         -0.0043     3.0936     2.9219 C.ar         1    LIG   0.0000
  15 H           -0.9437     0.6959     0.6959 H            1    LIG   0.0000
  16 H            1.1925     1.1925     0.0377 H            1    LIG   0.0000
  17 H            1.1925     0.0377     1.1925 H            1    LIG   0.0000
  18 H            2.0700     1.4034     2.7367 H            1    LIG   0.0000
  19 H            2.7367     2.0700     1.4034 H            1    LIG   0.0000
  20 H            2.2040     4.1485     0.7312 H            1    LIG   0.0000
  21 H            2.5012     4.6777     2.2472 H            1    LIG   0.0000
  22 H            0.5080     5.8484     2.3059 H            1    LIG   0.0000
  23 H            1.2580     6.2493     0.9118 H            1    LIG   0.0000
  24 H           -0.5769     5.4744    -0.2889 H            1    LIG   0.0000
  25 H           -2.1287     4.0231     0.5373 H            1    LIG   0.0000
  26 H           -3.2274     3.9194     2.7386 H            1    LIG   0.0000
  27 H           -3.2203     2.9699     4.9360 H            1    LIG   0.0000
  28 H           -1.1927     2.1055     5.8615 H            1    LIG   0.0000
  29 H            0.8257     2.1816     4.5913 H            1    LIG   0.0000
@<TRIPOS>BOND
   1        1        2 1
   2        2        3 1
   3        3        4 1
   4        4        5 1
   5        5        6 1
   6        6        7 1
   7        7        8 2
   8        8        9 1
   9        9       10 ar
  10       10       11 ar
  11       11       12 ar
  12       12       13 ar
  13       13       14 ar
  14       14        9 ar
  15       14        4 1
  16        1       15 1
  17        2       16 1
  18        2       17 1
  19        3       18 1
  20        3       19 1
  21        5       20 1
  22        5       21 1
  23        6       22 1
  24        6       23 1
  25        7       24 1
  26        8       25 1
  27       10       26 1
  28       11       27 1
  29       12       28 1
  30       13       29 1

@<TRIPOS>MOLECULE

  29   30
SMALL
USER_CHARGES
@<TRIPOS>ATOM
   1 O1          -0.3664     1.2733     1.2733 O.3          1    LIG   0.0000
   2 C2           1.0000     1.0000     1.0000 C.3          1    LIG   0.0000
   3 C3           1.8776     1.8776     1.8776 C.3          1    LIG   0.0000
   4 N4           2.1618     3.1464     1.1772 N.pl3        1    LIG   0.0000
   5 C5           1.0170     3.8022     0.5193 C.3          1    LIG   0.0000
   6 C6           1.1942     5.3087     0.3403 C.3          1    LIG   0.0000
   7 C7           1.5946     6.0141     1.6298 C.2          1    LIG   0.0000
   8 C8           2.7635     5.8238     2.2164 C.2          1    LIG   0.0000
   9 C9           3.7618     4.8993     1.7000 C.ar         1    LIG   0.0000
  10 C10          5.0598     5.3947     1.7303 C.ar         1    LIG   0.0000
  11 C11          6.0985     4.6160     1.2318 C.ar         1    LIG   0.0000
  12 C12          5.8388     3.3523     0.7116 C.ar         1    LIG   0.0000
  13 C13          4.5357     2.8651     0.6939 C.ar         1    LIG   0.0000
  14 C14          3.4829     3.6270     1.1896 C.ar         1    LIG   0.0000
  15 H           -0.9437     0.6959     0.6959 H            1    LIG   0.0000
  16 H            1.1925     1.1925     0.0377 H            1    LIG   0.0000
  17 H            1.1925     0.0377     1.1925 H            1    LIG   0.0000
  18 H            1.4034     2.0700     2.7367 H            1    LIG   0.0000
  19 H            2.7367     1.4034     2.0700 H            1    LIG   0.0000
  20 H            0.2004     3.6439     1.0744 H            1    LIG   0.0000
  21 H            0.8920     3.3894    -0.3828 H            1    LIG   0.0000
  22 H            1.9052     5.4675    -0.3447 H            1    LIG   0.0000
  23 H            0.3299     5.6961     0.0196 H            1    LIG   0.0000
  24 H            0.9455     6.6480     2.0502 H            1    LIG   0.0000
  25 H            2.9706     6.3364     3.0497 H            1    LIG   0.0000
  26 H            5.2451     6.3023     2.1069 H            1    LIG   0.0000
  27 H            7.0353     4.9656     1.2473 H            1    LIG   0.0000
  28 H            6.5870     2.7952     0.3511 H            1    LIG   0.0000
  29 H            4.3537     1.9557     0.3200 H            1    LIG   0.0000
@<TRIPOS>BOND
   1        1        2 1
   2        2        3 1
   3        3        4 1
   4        4        5 1
   5        5        6 1
   6        6        7 1
   7        7        8 2
   8        8        9 1
   9        9       10 ar
  10       10       11 ar
  11       11       12 ar
  12       12       13 ar
  13       13       14 ar
  14       14        9 ar
  15       14        4 1
  16        1       15 1
  17        2       16 1
  18        2       17 1
  19        3       18 1
  20        3       19 1
  21        5       20 1
  22        5       21 1
  23        6       22 1
  24        6       23 1
  25        7       24 1
  26        8       25 1
  27       10       26 1
  28       11       27 1
  29       12       28 1
  30       13       29 1

