@<TRIPOS>MOLECULE
*****
 29 30 0 0 0
SMALL
USER_CHARGES

@<TRIPOS>ATOM
      1 O1         -0.3664    1.2733    1.2733 O.3     1  LIG1        0.0000
      2 C2          1.0000    1.0000    1.0000 C.3     1  LIG1        0.0000
      3 C3          1.8776    1.8776    1.8776 C.3     1  LIG1        0.0000
      4 N4          1.5944    3.2933    1.5944 N.pl3   1  LIG1        0.0000
      5 C5          0.4122    3.9351    2.1935 C.3     1  LIG1        0.0000
      6 C6         -0.7667    3.9939    1.2330 C.3     1  LIG1        0.0000
      7 C7         -0.5933    5.1211    0.2193 C.2     1  LIG1        0.0000
      8 C8          0.5499    5.5735   -0.3124 C.2     1  LIG1        0.0000
      9 C9          1.9221    5.1162   -0.0935 C.ar    1  LIG1        0.0000
     10 C10         2.8431    5.8349   -0.8366 C.ar    1  LIG1        0.0000
     11 C11         4.2026    5.5529   -0.7563 C.ar    1  LIG1        0.0000
     12 C12         4.6621    4.5444    0.0842 C.ar    1  LIG1        0.0000
     13 C13         3.7619    3.8148    0.8505 C.ar    1  LIG1        0.0000
     14 C14         2.4001    4.0982    0.7640 C.ar    1  LIG1        0.0000
     15 H          -0.9437    0.6959    0.6959 H       1  LIG1        0.0000
     16 H           1.1925    1.1925    0.0377 H       1  LIG1        0.0000
     17 H           1.1925    0.0377    1.1925 H       1  LIG1        0.0000
     18 H           1.6851    1.6851    2.8398 H       1  LIG1        0.0000
     19 H           2.8398    1.6851    1.6851 H       1  LIG1        0.0000
     20 H           0.6545    4.8675    2.4617 H       1  LIG1        0.0000
     21 H           0.1407    3.4152    3.0035 H       1  LIG1        0.0000
     22 H          -0.8345    3.1235    0.7453 H       1  LIG1        0.0000
     23 H          -1.6055    4.1499    1.7546 H       1  LIG1        0.0000
     24 H          -1.4312    5.5753   -0.0836 H       1  LIG1        0.0000
     25 H           0.4508    6.3352   -0.9527 H       1  LIG1        0.0000
     26 H           2.5263    6.5670   -1.4396 H       1  LIG1        0.0000
     27 H           4.8529    6.0778   -1.3055 H       1  LIG1        0.0000
     28 H           5.6405    4.3446    0.1368 H       1  LIG1        0.0000
     29 H           4.0884    3.0919    1.4595 H       1  LIG1        0.0000
@<TRIPOS>BOND
     1     1     2    1
     2     2     3    1
     3     3     4    1
     4     4     5    1
     5     5     6    1
     6     6     7    1
     7     7     8    2
     8     8     9    1
     9     9    10   ar
    10    10    11   ar
    11    11    12   ar
    12    12    13   ar
    13    13    14   ar
    14    14     9   ar
    15    14     4    1
    16     1    15    1
    17     2    16    1
    18     2    17    1
    19     3    18    1
    20     3    19    1
    21     5    20    1
    22     5    21    1
    23     6    22    1
    24     6    23    1
    25     7    24    1
    26     8    25    1
    27    10    26    1
    28    11    27    1
    29    12    28    1
    30    13    29    1
