@<TRIPOS>MOLECULE
*****
 29 30 0 0 0
SMALL
USER_CHARGES

@<TRIPOS>ATOM
      1 O1         -0.3664    1.2733    1.2733 O.3     1  LIG1        0.0000
      2 C2          1.0000    1.0000    1.0000 C.3     1  LIG1        0.0000
      3 C3          1.8776    1.8776    1.8776 C.3     1  LIG1        0.0000
      4 N4          1.5953    3.2887    1.5953 N.pl3   1  LIG1        0.0000
      5 C5          2.1768    3.9548    0.4268 C.3     1  LIG1        0.0000
      6 C6          2.6927    5.3036    0.9041 C.3     1  LIG1        0.0000
      7 C7          3.5598    5.0859    2.1336 C.2     1  LIG1        0.0000
      8 C8          2.9475    4.8927    3.2892 C.2     1  LIG1        0.0000
      9 C9          1.4993    4.8841    3.3278 C.ar    1  LIG1        0.0000
     10 C10         0.8057    5.6852    4.2257 C.ar    1  LIG1        0.0000
     11 C11        -0.5845    5.6807    4.2573 C.ar    1  LIG1        0.0000
     12 C12        -1.2922    4.8654    3.3810 C.ar    1  LIG1        0.0000
     13 C13        -0.5911    4.0642    2.4851 C.ar    1  LIG1        0.0000
     14 C14         0.7996    4.0623    2.4546 C.ar    1  LIG1        0.0000
     15 H          -0.9437    0.6959    0.6959 H       1  LIG1        0.0000
     16 H           1.1925    1.1925    0.0377 H       1  LIG1        0.0000
     17 H           1.1925    0.0377    1.1925 H       1  LIG1        0.0000
     18 H           1.6851    1.6851    2.8398 H       1  LIG1        0.0000
     19 H           2.8398    1.6851    1.6851 H       1  LIG1        0.0000
     20 H           1.4801    4.0824   -0.2791 H       1  LIG1        0.0000
     21 H           2.9291    3.4089    0.0579 H       1  LIG1        0.0000
     22 H           3.2352    5.7314    0.1811 H       1  LIG1        0.0000
     23 H           1.9213    5.8959    1.1367 H       1  LIG1        0.0000
     24 H           4.5578    5.0888    2.0706 H       1  LIG1        0.0000
     25 H           3.4772    4.7542    4.1260 H       1  LIG1        0.0000
     26 H           1.3122    6.2724    4.8571 H       1  LIG1        0.0000
     27 H          -1.0736    6.2617    4.9079 H       1  LIG1        0.0000
     28 H          -2.2920    4.8550    3.3944 H       1  LIG1        0.0000
     29 H          -1.0965    3.4787    1.8512 H       1  LIG1        0.0000
@<TRIPOS>BOND
     1     1     2    1
     2     2     3    1
     3     3     4    1
     4     4     5    1
     5     5     6    1
     6     6     7    1
     7     7     8    2
     8     8     9    1
     9     9    10   ar
    10    10    11   ar
    11    11    12   ar
    12    12    13   ar
    13    13    14   ar
    14    14     9   ar
    15    14     4    1
    16     1    15    1
    17     2    16    1
    18     2    17    1
    19     3    18    1
    20     3    19    1
    21     5    20    1
    22     5    21    1
    23     6    22    1
    24     6    23    1
    25     7    24    1
    26     8    25    1
    27    10    26    1
    28    11    27    1
    29    12    28    1
    30    13    29    1
