@<TRIPOS>MOLECULE
*****
 29 30 0 0 0
SMALL
USER_CHARGES

@<TRIPOS>ATOM
      1 O1         -0.3664    1.2733    1.2733 O.3     1  LIG1        0.0000
      2 C2          1.0000    1.0000    1.0000 C.3     1  LIG1        0.0000
      3 C3          1.8776    1.8776    1.8776 C.3     1  LIG1        0.0000
      4 N4          2.1618    3.1464    1.1772 N.pl3   1  LIG1        0.0000
      5 C5          1.0170    3.8022    0.5193 C.3     1  LIG1        0.0000
      6 C6          1.1942    5.3087    0.3403 C.3     1  LIG1        0.0000
      7 C7          1.5946    6.0141    1.6298 C.2     1  LIG1        0.0000
      8 C8          2.7635    5.8238    2.2164 C.2     1  LIG1        0.0000
      9 C9          3.7618    4.8993    1.7000 C.ar    1  LIG1        0.0000
     10 C10         5.0598    5.3947    1.7303 C.ar    1  LIG1        0.0000
     11 C11         6.0985    4.6160    1.2318 C.ar    1  LIG1        0.0000
     12 C12         5.8388    3.3523    0.7116 C.ar    1  LIG1        0.0000
     13 C13         4.5357    2.8651    0.6939 C.ar    1  LIG1        0.0000
     14 C14         3.4829    3.6270    1.1896 C.ar    1  LIG1        0.0000
     15 H          -0.9437    0.6959    0.6959 H       1  LIG1        0.0000
     16 H           1.1925    1.1925    0.0377 H       1  LIG1        0.0000
     17 H           1.1925    0.0377    1.1925 H       1  LIG1        0.0000
     18 H           1.4034    2.0700    2.7367 H       1  LIG1        0.0000
     19 H           2.7367    1.4034    2.0700 H       1  LIG1        0.0000
     20 H           0.2004    3.6439    1.0744 H       1  LIG1        0.0000
     21 H           0.8920    3.3894   -0.3828 H       1  LIG1        0.0000
     22 H           1.9052    5.4675   -0.3447 H       1  LIG1        0.0000
     23 H           0.3299    5.6961    0.0196 H       1  LIG1        0.0000
     24 H           0.9455    6.6480    2.0502 H       1  LIG1        0.0000
     25 H           2.9706    6.3364    3.0497 H       1  LIG1        0.0000
     26 H           5.2451    6.3023    2.1069 H       1  LIG1        0.0000
     27 H           7.0353    4.9656    1.2473 H       1  LIG1        0.0000
     28 H           6.5870    2.7952    0.3511 H       1  LIG1        0.0000
     29 H           4.3537    1.9557    0.3200 H       1  LIG1        0.0000
@<TRIPOS>BOND
     1     1     2    1
     2     2     3    1
     3     3     4    1
     4     4     5    1
     5     5     6    1
     6     6     7    1
     7     7     8    2
     8     8     9    1
     9     9    10   ar
    10    10    11   ar
    11    11    12   ar
    12    12    13   ar
    13    13    14   ar
    14    14     9   ar
    15    14     4    1
    16     1    15    1
    17     2    16    1
    18     2    17    1
    19     3    18    1
    20     3    19    1
    21     5    20    1
    22     5    21    1
    23     6    22    1
    24     6    23    1
    25     7    24    1
    26     8    25    1
    27    10    26    1
    28    11    27    1
    29    12    28    1
    30    13    29    1
