@<TRIPOS>MOLECULE
*****
 29 30 0 0 0
SMALL
USER_CHARGES

@<TRIPOS>ATOM
      1 O1         -0.3664    1.2733    1.2733 O.3     1  LIG1        0.0000
      2 C2          1.0000    1.0000    1.0000 C.3     1  LIG1        0.0000
      3 C3          1.8776    1.8776    1.8776 C.3     1  LIG1        0.0000
      4 N4          1.5944    3.2933    1.5944 N.pl3   1  LIG1        0.0000
      5 C5          2.1935    3.9351    0.4122 C.3     1  LIG1        0.0000
      6 C6          3.4388    4.7396    0.7558 C.3     1  LIG1        0.0000
      7 C7          3.0700    6.0848    1.3744 C.2     1  LIG1        0.0000
      8 C8          2.0224    6.3627    2.1615 C.2     1  LIG1        0.0000
      9 C9          0.9696    5.4756    2.6559 C.ar    1  LIG1        0.0000
     10 C10         0.0560    6.1366    3.4592 C.ar    1  LIG1        0.0000
     11 C11        -1.0247    5.4622    4.0174 C.ar    1  LIG1        0.0000
     12 C12        -1.2111    4.1066    3.7680 C.ar    1  LIG1        0.0000
     13 C13        -0.3168    3.4202    2.9561 C.ar    1  LIG1        0.0000
     14 C14         0.7668    4.0992    2.4020 C.ar    1  LIG1        0.0000
     15 H          -0.9437    0.6959    0.6959 H       1  LIG1        0.0000
     16 H           1.1925    1.1925    0.0377 H       1  LIG1        0.0000
     17 H           1.1925    0.0377    1.1925 H       1  LIG1        0.0000
     18 H           1.6851    1.6851    2.8398 H       1  LIG1        0.0000
     19 H           2.8398    1.6851    1.6851 H       1  LIG1        0.0000
     20 H           1.5179    4.5484    0.0031 H       1  LIG1        0.0000
     21 H           2.4418    3.2253   -0.2470 H       1  LIG1        0.0000
     22 H           3.9930    4.2214    1.4073 H       1  LIG1        0.0000
     23 H           3.9663    4.8975   -0.0789 H       1  LIG1        0.0000
     24 H           3.6820    6.8482    1.1681 H       1  LIG1        0.0000
     25 H           1.9493    7.3162    2.4540 H       1  LIG1        0.0000
     26 H           0.1748    7.1128    3.6406 H       1  LIG1        0.0000
     27 H          -1.6709    5.9543    4.6007 H       1  LIG1        0.0000
     28 H          -1.9888    3.6260    4.1733 H       1  LIG1        0.0000
     29 H          -0.4497    2.4465    2.7706 H       1  LIG1        0.0000
@<TRIPOS>BOND
     1     1     2    1
     2     2     3    1
     3     3     4    1
     4     4     5    1
     5     5     6    1
     6     6     7    1
     7     7     8    2
     8     8     9    1
     9     9    10   ar
    10    10    11   ar
    11    11    12   ar
    12    12    13   ar
    13    13    14   ar
    14    14     9   ar
    15    14     4    1
    16     1    15    1
    17     2    16    1
    18     2    17    1
    19     3    18    1
    20     3    19    1
    21     5    20    1
    22     5    21    1
    23     6    22    1
    24     6    23    1
    25     7    24    1
    26     8    25    1
    27    10    26    1
    28    11    27    1
    29    12    28    1
    30    13    29    1
