@<TRIPOS>MOLECULE
*****
 29 30 0 0 0
SMALL
USER_CHARGES

@<TRIPOS>ATOM
      1 O1         -0.3664    1.2733    1.2733 O.3     1  LIG1        0.0000
      2 C2          1.0000    1.0000    1.0000 C.3     1  LIG1        0.0000
      3 C3          1.8776    1.8776    1.8776 C.3     1  LIG1        0.0000
      4 N4          1.5953    3.2887    1.5953 N.pl3   1  LIG1        0.0000
      5 C5          2.1379    4.3509    2.4465 C.3     1  LIG1        0.0000
      6 C6          1.0002    5.3258    2.7079 C.3     1  LIG1        0.0000
      7 C7         -0.2105    4.5432    3.1903 C.2     1  LIG1        0.0000
      8 C8         -0.9360    3.9144    2.2815 C.2     1  LIG1        0.0000
      9 C9         -0.5420    3.9882    0.8893 C.ar    1  LIG1        0.0000
     10 C10        -1.4505    4.3711   -0.0890 C.ar    1  LIG1        0.0000
     11 C11        -1.0692    4.4475   -1.4241 C.ar    1  LIG1        0.0000
     12 C12         0.2366    4.1374   -1.7878 C.ar    1  LIG1        0.0000
     13 C13         1.1412    3.7530   -0.8029 C.ar    1  LIG1        0.0000
     14 C14         0.7616    3.6703    0.5328 C.ar    1  LIG1        0.0000
     15 H          -0.9437    0.6959    0.6959 H       1  LIG1        0.0000
     16 H           1.1925    1.1925    0.0377 H       1  LIG1        0.0000
     17 H           1.1925    0.0377    1.1925 H       1  LIG1        0.0000
     18 H           1.6851    1.6851    2.8398 H       1  LIG1        0.0000
     19 H           2.8398    1.6851    1.6851 H       1  LIG1        0.0000
     20 H           2.8900    4.8162    1.9797 H       1  LIG1        0.0000
     21 H           2.4676    3.9668    3.3089 H       1  LIG1        0.0000
     22 H           1.2757    5.9848    3.4078 H       1  LIG1        0.0000
     23 H           0.7725    5.8115    1.8639 H       1  LIG1        0.0000
     24 H          -0.4496    4.5053    4.1605 H       1  LIG1        0.0000
     25 H          -1.7464    3.3945    2.5516 H       1  LIG1        0.0000
     26 H          -2.3902    4.5945    0.1699 H       1  LIG1        0.0000
     27 H          -1.7316    4.7245   -2.1201 H       1  LIG1        0.0000
     28 H           0.5218    4.1899   -2.7448 H       1  LIG1        0.0000
     29 H           2.0820    3.5321   -1.0601 H       1  LIG1        0.0000
@<TRIPOS>BOND
     1     1     2    1
     2     2     3    1
     3     3     4    1
     4     4     5    1
     5     5     6    1
     6     6     7    1
     7     7     8    2
     8     8     9    1
     9     9    10   ar
    10    10    11   ar
    11    11    12   ar
    12    12    13   ar
    13    13    14   ar
    14    14     9   ar
    15    14     4    1
    16     1    15    1
    17     2    16    1
    18     2    17    1
    19     3    18    1
    20     3    19    1
    21     5    20    1
    22     5    21    1
    23     6    22    1
    24     6    23    1
    25     7    24    1
    26     8    25    1
    27    10    26    1
    28    11    27    1
    29    12    28    1
    30    13    29    1
