@<TRIPOS>MOLECULE
*****
 29 30 0 0 0
SMALL
USER_CHARGES

@<TRIPOS>ATOM
      1 O1         -0.3664    1.2733    1.2733 O.3     1  LIG1        0.0000
      2 C2          1.0000    1.0000    1.0000 C.3     1  LIG1        0.0000
      3 C3          1.8776    1.8776    1.8776 C.3     1  LIG1        0.0000
      4 N4          1.5934    3.2987    1.5934 N.pl3   1  LIG1        0.0000
      5 C5          2.6311    4.2669    1.9923 C.3     1  LIG1        0.0000
      6 C6          2.5939    5.5684    1.1939 C.3     1  LIG1        0.0000
      7 C7          2.5745    5.3378   -0.3118 C.2     1  LIG1        0.0000
      8 C8          1.5514    4.7828   -0.9377 C.2     1  LIG1        0.0000
      9 C9          0.3633    4.3132   -0.2407 C.ar    1  LIG1        0.0000
     10 C10        -0.8293    4.6343   -0.8777 C.ar    1  LIG1        0.0000
     11 C11        -2.0358    4.2686   -0.2907 C.ar    1  LIG1        0.0000
     12 C12        -2.0461    3.5850    0.9208 C.ar    1  LIG1        0.0000
     13 C13        -0.8448    3.2632    1.5445 C.ar    1  LIG1        0.0000
     14 C14         0.3727    3.6177    0.9731 C.ar    1  LIG1        0.0000
     15 H          -0.9437    0.6959    0.6959 H       1  LIG1        0.0000
     16 H           1.1925    1.1925    0.0377 H       1  LIG1        0.0000
     17 H           1.1925    0.0377    1.1925 H       1  LIG1        0.0000
     18 H           1.6851    1.6851    2.8398 H       1  LIG1        0.0000
     19 H           2.8398    1.6851    1.6851 H       1  LIG1        0.0000
     20 H           3.5268    3.8417    1.8619 H       1  LIG1        0.0000
     21 H           2.5038    4.4859    2.9597 H       1  LIG1        0.0000
     22 H           1.7716    6.0767    1.4497 H       1  LIG1        0.0000
     23 H           3.4041    6.1075    1.4240 H       1  LIG1        0.0000
     24 H           3.3697    5.6183   -0.8494 H       1  LIG1        0.0000
     25 H           1.5955    4.6812   -1.9316 H       1  LIG1        0.0000
     26 H          -0.8200    5.1236   -1.7498 H       1  LIG1        0.0000
     27 H          -2.8987    4.4979   -0.7409 H       1  LIG1        0.0000
     28 H          -2.9149    3.3255    1.3424 H       1  LIG1        0.0000
     29 H          -0.8568    2.7707    2.4148 H       1  LIG1        0.0000
@<TRIPOS>BOND
     1     1     2    1
     2     2     3    1
     3     3     4    1
     4     4     5    1
     5     5     6    1
     6     6     7    1
     7     7     8    2
     8     8     9    1
     9     9    10   ar
    10    10    11   ar
    11    11    12   ar
    12    12    13   ar
    13    13    14   ar
    14    14     9   ar
    15    14     4    1
    16     1    15    1
    17     2    16    1
    18     2    17    1
    19     3    18    1
    20     3    19    1
    21     5    20    1
    22     5    21    1
    23     6    22    1
    24     6    23    1
    25     7    24    1
    26     8    25    1
    27    10    26    1
    28    11    27    1
    29    12    28    1
    30    13    29    1
