@<TRIPOS>MOLECULE
*****
 29 30 0 0 0
SMALL
USER_CHARGES

@<TRIPOS>ATOM
      1 O1         -0.3664    1.2733    1.2733 O.3     1  LIG1        0.0000
      2 C2          1.0000    1.0000    1.0000 C.3     1  LIG1        0.0000
      3 C3          1.8776    1.8776    1.8776 C.3     1  LIG1        0.0000
      4 N4          1.2931    3.2250    1.9640 N.pl3   1  LIG1        0.0000
      5 C5          1.3093    3.9465    3.2476 C.3     1  LIG1        0.0000
      6 C6         -0.0128    3.8365    3.9931 C.3     1  LIG1        0.0000
      7 C7         -1.0551    4.7831    3.4049 C.2     1  LIG1        0.0000
      8 C8         -1.1946    5.1515    2.1246 C.2     1  LIG1        0.0000
      9 C9         -0.4197    4.7482    0.9514 C.ar    1  LIG1        0.0000
     10 C10        -0.8761    5.3427   -0.2128 C.ar    1  LIG1        0.0000
     11 C11        -0.2603    5.0893   -1.4339 C.ar    1  LIG1        0.0000
     12 C12         0.8364    4.2367   -1.5036 C.ar    1  LIG1        0.0000
     13 C13         1.3234    3.6354   -0.3498 C.ar    1  LIG1        0.0000
     14 C14         0.7009    3.8892    0.8710 C.ar    1  LIG1        0.0000
     15 H          -0.9437    0.6959    0.6959 H       1  LIG1        0.0000
     16 H           1.1925    1.1925    0.0377 H       1  LIG1        0.0000
     17 H           1.1925    0.0377    1.1925 H       1  LIG1        0.0000
     18 H           1.9363    1.4803    2.7934 H       1  LIG1        0.0000
     19 H           2.7934    1.9363    1.4803 H       1  LIG1        0.0000
     20 H           1.4985    4.9123    3.0705 H       1  LIG1        0.0000
     21 H           2.0339    3.5646    3.8213 H       1  LIG1        0.0000
     22 H          -0.3492    2.8973    3.9249 H       1  LIG1        0.0000
     23 H           0.1339    4.0690    4.9546 H       1  LIG1        0.0000
     24 H          -1.7108    5.1741    4.0508 H       1  LIG1        0.0000
     25 H          -1.9371    5.7967    1.9446 H       1  LIG1        0.0000
     26 H          -1.6595    5.9630   -0.1752 H       1  LIG1        0.0000
     27 H          -0.6078    5.5222   -2.2657 H       1  LIG1        0.0000
     28 H           1.2743    4.0565   -2.3843 H       1  LIG1        0.0000
     29 H           2.1145    3.0254   -0.3948 H       1  LIG1        0.0000
@<TRIPOS>BOND
     1     1     2    1
     2     2     3    1
     3     3     4    1
     4     4     5    1
     5     5     6    1
     6     6     7    1
     7     7     8    2
     8     8     9    1
     9     9    10   ar
    10    10    11   ar
    11    11    12   ar
    12    12    13   ar
    13    13    14   ar
    14    14     9   ar
    15    14     4    1
    16     1    15    1
    17     2    16    1
    18     2    17    1
    19     3    18    1
    20     3    19    1
    21     5    20    1
    22     5    21    1
    23     6    22    1
    24     6    23    1
    25     7    24    1
    26     8    25    1
    27    10    26    1
    28    11    27    1
    29    12    28    1
    30    13    29    1
