@<TRIPOS>MOLECULE
*****
 29 30 0 0 0
SMALL
USER_CHARGES

@<TRIPOS>ATOM
      1 O1         -0.3664    1.2733    1.2733 O.3     1  LIG1        0.0000
      2 C2          1.0000    1.0000    1.0000 C.3     1  LIG1        0.0000
      3 C3          1.8776    1.8776    1.8776 C.3     1  LIG1        0.0000
      4 N4          1.5953    3.2887    1.5953 N.pl3   1  LIG1        0.0000
      5 C5          0.4268    3.9548    2.1768 C.3     1  LIG1        0.0000
      6 C6         -0.2253    4.7505    1.0566 C.3     1  LIG1        0.0000
      7 C7         -0.4209    3.8348   -0.1410 C.2     1  LIG1        0.0000
      8 C8          0.6304    3.5906   -0.9042 C.2     1  LIG1        0.0000
      9 C9          1.9053    4.1875   -0.5615 C.ar    1  LIG1        0.0000
     10 C10         2.6322    4.9048   -1.5028 C.ar    1  LIG1        0.0000
     11 C11         3.8527    5.4826   -1.1707 C.ar    1  LIG1        0.0000
     12 C12         4.3547    5.3423    0.1184 C.ar    1  LIG1        0.0000
     13 C13         3.6221    4.6210    1.0561 C.ar    1  LIG1        0.0000
     14 C14         2.4035    4.0372    0.7256 C.ar    1  LIG1        0.0000
     15 H          -0.9437    0.6959    0.6959 H       1  LIG1        0.0000
     16 H           1.1925    1.1925    0.0377 H       1  LIG1        0.0000
     17 H           1.1925    0.0377    1.1925 H       1  LIG1        0.0000
     18 H           1.6851    1.6851    2.8398 H       1  LIG1        0.0000
     19 H           2.8398    1.6851    1.6851 H       1  LIG1        0.0000
     20 H           0.7109    4.5673    2.9144 H       1  LIG1        0.0000
     21 H          -0.2138    3.2758    2.5354 H       1  LIG1        0.0000
     22 H          -1.1115    5.0983    1.3626 H       1  LIG1        0.0000
     23 H           0.3637    5.5173    0.8014 H       1  LIG1        0.0000
     24 H          -1.3132    3.4316   -0.3443 H       1  LIG1        0.0000
     25 H           0.5469    3.0013   -1.7079 H       1  LIG1        0.0000
     26 H           2.2735    5.0071   -2.4307 H       1  LIG1        0.0000
     27 H           4.3675    5.9970   -1.8564 H       1  LIG1        0.0000
     28 H           5.2308    5.7544    0.3684 H       1  LIG1        0.0000
     29 H           3.9783    4.5204    1.9851 H       1  LIG1        0.0000
@<TRIPOS>BOND
     1     1     2    1
     2     2     3    1
     3     3     4    1
     4     4     5    1
     5     5     6    1
     6     6     7    1
     7     7     8    2
     8     8     9    1
     9     9    10   ar
    10    10    11   ar
    11    11    12   ar
    12    12    13   ar
    13    13    14   ar
    14    14     9   ar
    15    14     4    1
    16     1    15    1
    17     2    16    1
    18     2    17    1
    19     3    18    1
    20     3    19    1
    21     5    20    1
    22     5    21    1
    23     6    22    1
    24     6    23    1
    25     7    24    1
    26     8    25    1
    27    10    26    1
    28    11    27    1
    29    12    28    1
    30    13    29    1
