@<TRIPOS>MOLECULE
*****
 29 30 0 0 0
SMALL
USER_CHARGES

@<TRIPOS>ATOM
      1 O1         -0.3664    1.2733    1.2733 O.3     1  LIG1        0.0000
      2 C2          1.0000    1.0000    1.0000 C.3     1  LIG1        0.0000
      3 C3          1.8776    1.8776    1.8776 C.3     1  LIG1        0.0000
      4 N4          1.1772    3.1464    2.1618 N.pl3   1  LIG1        0.0000
      5 C5          0.5193    3.8022    1.0170 C.3     1  LIG1        0.0000
      6 C6         -0.6329    4.7216    1.4171 C.3     1  LIG1        0.0000
      7 C7         -1.6355    4.0442    2.3425 C.2     1  LIG1        0.0000
      8 C8         -1.3371    3.6800    3.5774 C.2     1  LIG1        0.0000
      9 C9         -0.0139    3.8652    4.1544 C.ar    1  LIG1        0.0000
     10 C10        -0.0286    4.3335    5.4627 C.ar    1  LIG1        0.0000
     11 C11         1.1760    4.5824    6.1113 C.ar    1  LIG1        0.0000
     12 C12         2.3829    4.3605    5.4560 C.ar    1  LIG1        0.0000
     13 C13         2.3837    3.8845    4.1487 C.ar    1  LIG1        0.0000
     14 C14         1.1900    3.6272    3.4828 C.ar    1  LIG1        0.0000
     15 H          -0.9437    0.6959    0.6959 H       1  LIG1        0.0000
     16 H           1.1925    1.1925    0.0377 H       1  LIG1        0.0000
     17 H           1.1925    0.0377    1.1925 H       1  LIG1        0.0000
     18 H           2.0700    1.4034    2.7367 H       1  LIG1        0.0000
     19 H           2.7367    2.0700    1.4034 H       1  LIG1        0.0000
     20 H           0.1614    3.0931    0.4095 H       1  LIG1        0.0000
     21 H           1.2023    4.3457    0.5290 H       1  LIG1        0.0000
     22 H          -0.2560    5.5210    1.8849 H       1  LIG1        0.0000
     23 H          -1.1102    5.0145    0.5886 H       1  LIG1        0.0000
     24 H          -2.5587    3.8675    2.0011 H       1  LIG1        0.0000
     25 H          -2.0502    3.2598    4.1386 H       1  LIG1        0.0000
     26 H          -0.8970    4.4901    5.9331 H       1  LIG1        0.0000
     27 H           1.1747    4.9219    7.0519 H       1  LIG1        0.0000
     28 H           3.2479    4.5428    5.9235 H       1  LIG1        0.0000
     29 H           3.2536    3.7255    3.6818 H       1  LIG1        0.0000
@<TRIPOS>BOND
     1     1     2    1
     2     2     3    1
     3     3     4    1
     4     4     5    1
     5     5     6    1
     6     6     7    1
     7     7     8    2
     8     8     9    1
     9     9    10   ar
    10    10    11   ar
    11    11    12   ar
    12    12    13   ar
    13    13    14   ar
    14    14     9   ar
    15    14     4    1
    16     1    15    1
    17     2    16    1
    18     2    17    1
    19     3    18    1
    20     3    19    1
    21     5    20    1
    22     5    21    1
    23     6    22    1
    24     6    23    1
    25     7    24    1
    26     8    25    1
    27    10    26    1
    28    11    27    1
    29    12    28    1
    30    13    29    1
