@<TRIPOS>MOLECULE
*****
 29 30 0 0 0
SMALL
USER_CHARGES

@<TRIPOS>ATOM
      1 O1         -0.3664    1.2733    1.2733 O.3     1  LIG1        0.0000
      2 C2          1.0000    1.0000    1.0000 C.3     1  LIG1        0.0000
      3 C3          1.8776    1.8776    1.8776 C.3     1  LIG1        0.0000
      4 N4          1.1772    3.1464    2.1618 N.pl3   1  LIG1        0.0000
      5 C5          0.8133    3.3928    3.5690 C.3     1  LIG1        0.0000
      6 C6          0.6531    4.8730    3.9101 C.3     1  LIG1        0.0000
      7 C7          1.8459    5.7129    3.4717 C.2     1  LIG1        0.0000
      8 C8          2.1517    5.9139    2.2017 C.2     1  LIG1        0.0000
      9 C9          1.3943    5.3251    1.1073 C.ar    1  LIG1        0.0000
     10 C10         1.1536    6.1979    0.0531 C.ar    1  LIG1        0.0000
     11 C11         0.4099    5.7609   -1.0376 C.ar    1  LIG1        0.0000
     12 C12        -0.0844    4.4610   -1.0723 C.ar    1  LIG1        0.0000
     13 C13         0.1699    3.5950   -0.0136 C.ar    1  LIG1        0.0000
     14 C14         0.9135    4.0116    1.0855 C.ar    1  LIG1        0.0000
     15 H          -0.9437    0.6959    0.6959 H       1  LIG1        0.0000
     16 H           1.1925    1.1925    0.0377 H       1  LIG1        0.0000
     17 H           1.1925    0.0377    1.1925 H       1  LIG1        0.0000
     18 H           2.0700    1.4034    2.7367 H       1  LIG1        0.0000
     19 H           2.7367    2.0700    1.4034 H       1  LIG1        0.0000
     20 H           1.5296    3.0099    4.1524 H       1  LIG1        0.0000
     21 H          -0.0529    2.9297    3.7571 H       1  LIG1        0.0000
     22 H          -0.1664    5.2191    3.4533 H       1  LIG1        0.0000
     23 H           0.5459    4.9628    4.9002 H       1  LIG1        0.0000
     24 H           2.4221    6.1299    4.1746 H       1  LIG1        0.0000
     25 H           2.9360    6.4947    1.9838 H       1  LIG1        0.0000
     26 H           1.5118    7.1312    0.0785 H       1  LIG1        0.0000
     27 H           0.2297    6.3830   -1.7995 H       1  LIG1        0.0000
     28 H          -0.6213    4.1498   -1.8565 H       1  LIG1        0.0000
     29 H          -0.1864    2.6611   -0.0432 H       1  LIG1        0.0000
@<TRIPOS>BOND
     1     1     2    1
     2     2     3    1
     3     3     4    1
     4     4     5    1
     5     5     6    1
     6     6     7    1
     7     7     8    2
     8     8     9    1
     9     9    10   ar
    10    10    11   ar
    11    11    12   ar
    12    12    13   ar
    13    13    14   ar
    14    14     9   ar
    15    14     4    1
    16     1    15    1
    17     2    16    1
    18     2    17    1
    19     3    18    1
    20     3    19    1
    21     5    20    1
    22     5    21    1
    23     6    22    1
    24     6    23    1
    25     7    24    1
    26     8    25    1
    27    10    26    1
    28    11    27    1
    29    12    28    1
    30    13    29    1
