@<TRIPOS>MOLECULE
*****
 29 30 0 0 0
SMALL
USER_CHARGES

@<TRIPOS>ATOM
      1 O1         -0.3664    1.2733    1.2733 O.3     1  LIG1        0.0000
      2 C2          1.0000    1.0000    1.0000 C.3     1  LIG1        0.0000
      3 C3          1.8776    1.8776    1.8776 C.3     1  LIG1        0.0000
      4 N4          1.5934    3.2985    1.5934 N.pl3   1  LIG1        0.0000
      5 C5          2.1736    3.9642    0.4269 C.3     1  LIG1        0.0000
      6 C6          1.1925    3.8785   -0.7317 C.3     1  LIG1        0.0000
      7 C7          0.1115    4.9503   -0.5964 C.2     1  LIG1        0.0000
      8 C8         -0.3990    5.4284    0.5380 C.2     1  LIG1        0.0000
      9 C9         -0.0940    5.0914    1.9303 C.ar    1  LIG1        0.0000
     10 C10        -0.8195    5.8860    2.8044 C.ar    1  LIG1        0.0000
     11 C11        -0.6565    5.6690    4.1687 C.ar    1  LIG1        0.0000
     12 C12         0.2123    4.6905    4.6412 C.ar    1  LIG1        0.0000
     13 C13         0.9520    3.9046    3.7695 C.ar    1  LIG1        0.0000
     14 C14         0.7840    4.1193    2.4084 C.ar    1  LIG1        0.0000
     15 H          -0.9437    0.6959    0.6959 H       1  LIG1        0.0000
     16 H           1.1925    1.1925    0.0377 H       1  LIG1        0.0000
     17 H           1.1925    0.0377    1.1925 H       1  LIG1        0.0000
     18 H           1.6851    1.6851    2.8398 H       1  LIG1        0.0000
     19 H           2.8398    1.6851    1.6851 H       1  LIG1        0.0000
     20 H           3.0298    3.5132    0.1750 H       1  LIG1        0.0000
     21 H           2.3534    4.9237    0.6436 H       1  LIG1        0.0000
     22 H           1.6852    4.0145   -1.5912 H       1  LIG1        0.0000
     23 H           0.7626    2.9756   -0.7332 H       1  LIG1        0.0000
     24 H          -0.2500    5.3324   -1.4469 H       1  LIG1        0.0000
     25 H          -1.1026    6.1291    0.4197 H       1  LIG1        0.0000
     26 H          -1.4404    6.5926    2.4649 H       1  LIG1        0.0000
     27 H          -1.1720    6.2254    4.8204 H       1  LIG1        0.0000
     28 H           0.3053    4.5512    5.6271 H       1  LIG1        0.0000
     29 H           1.5838    3.2081    4.1096 H       1  LIG1        0.0000
@<TRIPOS>BOND
     1     1     2    1
     2     2     3    1
     3     3     4    1
     4     4     5    1
     5     5     6    1
     6     6     7    1
     7     7     8    2
     8     8     9    1
     9     9    10   ar
    10    10    11   ar
    11    11    12   ar
    12    12    13   ar
    13    13    14   ar
    14    14     9   ar
    15    14     4    1
    16     1    15    1
    17     2    16    1
    18     2    17    1
    19     3    18    1
    20     3    19    1
    21     5    20    1
    22     5    21    1
    23     6    22    1
    24     6    23    1
    25     7    24    1
    26     8    25    1
    27    10    26    1
    28    11    27    1
    29    12    28    1
    30    13    29    1
