@<TRIPOS>MOLECULE
*****
 29 30 0 0 0
SMALL
USER_CHARGES

@<TRIPOS>ATOM
      1 O1         -0.3664    1.2733    1.2733 O.3     1  LIG1        0.0000
      2 C2          1.0000    1.0000    1.0000 C.3     1  LIG1        0.0000
      3 C3          1.8776    1.8776    1.8776 C.3     1  LIG1        0.0000
      4 N4          1.1772    3.1464    2.1618 N.pl3   1  LIG1        0.0000
      5 C5          1.7906    4.3701    1.6144 C.3     1  LIG1        0.0000
      6 C6          0.7988    5.5135    1.4096 C.3     1  LIG1        0.0000
      7 C7         -0.4361    5.0912    0.6239 C.2     1  LIG1        0.0000
      8 C8         -1.3292    4.2399    1.0974 C.2     1  LIG1        0.0000
      9 C9         -1.1974    3.6049    2.4003 C.ar    1  LIG1        0.0000
     10 C10        -2.3802    3.5584    3.1283 C.ar    1  LIG1        0.0000
     11 C11        -2.3742    3.0051    4.4041 C.ar    1  LIG1        0.0000
     12 C12        -1.1952    2.5005    4.9428 C.ar    1  LIG1        0.0000
     13 C13        -0.0193    2.5465    4.2005 C.ar    1  LIG1        0.0000
     14 C14        -0.0043    3.0936    2.9219 C.ar    1  LIG1        0.0000
     15 H          -0.9437    0.6959    0.6959 H       1  LIG1        0.0000
     16 H           1.1925    1.1925    0.0377 H       1  LIG1        0.0000
     17 H           1.1925    0.0377    1.1925 H       1  LIG1        0.0000
     18 H           2.0700    1.4034    2.7367 H       1  LIG1        0.0000
     19 H           2.7367    2.0700    1.4034 H       1  LIG1        0.0000
     20 H           2.2040    4.1485    0.7312 H       1  LIG1        0.0000
     21 H           2.5012    4.6777    2.2472 H       1  LIG1        0.0000
     22 H           0.5080    5.8484    2.3059 H       1  LIG1        0.0000
     23 H           1.2580    6.2493    0.9118 H       1  LIG1        0.0000
     24 H          -0.5769    5.4744   -0.2889 H       1  LIG1        0.0000
     25 H          -2.1287    4.0231    0.5373 H       1  LIG1        0.0000
     26 H          -3.2274    3.9194    2.7386 H       1  LIG1        0.0000
     27 H          -3.2203    2.9699    4.9360 H       1  LIG1        0.0000
     28 H          -1.1927    2.1055    5.8615 H       1  LIG1        0.0000
     29 H           0.8257    2.1816    4.5913 H       1  LIG1        0.0000
@<TRIPOS>BOND
     1     1     2    1
     2     2     3    1
     3     3     4    1
     4     4     5    1
     5     5     6    1
     6     6     7    1
     7     7     8    2
     8     8     9    1
     9     9    10   ar
    10    10    11   ar
    11    11    12   ar
    12    12    13   ar
    13    13    14   ar
    14    14     9   ar
    15    14     4    1
    16     1    15    1
    17     2    16    1
    18     2    17    1
    19     3    18    1
    20     3    19    1
    21     5    20    1
    22     5    21    1
    23     6    22    1
    24     6    23    1
    25     7    24    1
    26     8    25    1
    27    10    26    1
    28    11    27    1
    29    12    28    1
    30    13    29    1
