@<TRIPOS>MOLECULE
*****
 29 30 0 0 0
SMALL
USER_CHARGES

@<TRIPOS>ATOM
      1 O1         -0.3664    1.2733    1.2733 O.3     1  LIG1        0.0000
      2 C2          1.0000    1.0000    1.0000 C.3     1  LIG1        0.0000
      3 C3          1.8776    1.8776    1.8776 C.3     1  LIG1        0.0000
      4 N4          1.5934    3.2985    1.5934 N.pl3   1  LIG1        0.0000
      5 C5          0.4269    3.9642    2.1736 C.3     1  LIG1        0.0000
      6 C6          0.8389    4.6477    3.4679 C.3     1  LIG1        0.0000
      7 C7          1.5168    5.9853    3.1730 C.2     1  LIG1        0.0000
      8 C8          2.2744    6.2788    2.1167 C.2     1  LIG1        0.0000
      9 C9          2.6669    5.4522    0.9731 C.ar    1  LIG1        0.0000
     10 C10         3.4139    6.1845    0.0635 C.ar    1  LIG1        0.0000
     11 C11         3.8830    5.5291   -1.0703 C.ar    1  LIG1        0.0000
     12 C12         3.6056    4.1833   -1.2880 C.ar    1  LIG1        0.0000
     13 C13         2.8447    3.4517   -0.3877 C.ar    1  LIG1        0.0000
     14 C14         2.3818    4.1063    0.7454 C.ar    1  LIG1        0.0000
     15 H          -0.9437    0.6959    0.6959 H       1  LIG1        0.0000
     16 H           1.1925    1.1925    0.0377 H       1  LIG1        0.0000
     17 H           1.1925    0.0377    1.1925 H       1  LIG1        0.0000
     18 H           1.6851    1.6851    2.8398 H       1  LIG1        0.0000
     19 H           2.8398    1.6851    1.6851 H       1  LIG1        0.0000
     20 H          -0.2849    3.2880    2.3635 H       1  LIG1        0.0000
     21 H           0.0762    4.6459    1.5314 H       1  LIG1        0.0000
     22 H           0.0268    4.8069    4.0292 H       1  LIG1        0.0000
     23 H           1.4763    4.0577    3.9635 H       1  LIG1        0.0000
     24 H           1.3775    6.7156    3.8417 H       1  LIG1        0.0000
     25 H           2.6321    7.2126    2.1026 H       1  LIG1        0.0000
     26 H           3.6092    7.1531    0.2174 H       1  LIG1        0.0000
     27 H           4.4285    6.0335   -1.7397 H       1  LIG1        0.0000
     28 H           3.9611    3.7352   -2.1083 H       1  LIG1        0.0000
     29 H           2.6371    2.4869   -0.5494 H       1  LIG1        0.0000
@<TRIPOS>BOND
     1     1     2    1
     2     2     3    1
     3     3     4    1
     4     4     5    1
     5     5     6    1
     6     6     7    1
     7     7     8    2
     8     8     9    1
     9     9    10   ar
    10    10    11   ar
    11    11    12   ar
    12    12    13   ar
    13    13    14   ar
    14    14     9   ar
    15    14     4    1
    16     1    15    1
    17     2    16    1
    18     2    17    1
    19     3    18    1
    20     3    19    1
    21     5    20    1
    22     5    21    1
    23     6    22    1
    24     6    23    1
    25     7    24    1
    26     8    25    1
    27    10    26    1
    28    11    27    1
    29    12    28    1
    30    13    29    1
