@<TRIPOS>MOLECULE

  22   23
SMALL
USER_CHARGES
@<TRIPOS>ATOM
   1 O1           1.1543     3.3054     0.0088 O.2          1    LIG   0.0000
   2 C2           1.1561     2.0864     0.0016 C.2          1    LIG   0.0000
   3 C3           2.4036     1.4071    -0.0153 C.2          1    LIG   0.0000
   4 C4           2.4099     0.0363    -0.0222 C.2          1    LIG   0.0000
   5 C5           1.1830    -0.6795    -0.0116 C.2          1    LIG   0.0000
   6 C6           1.2264    -2.1293    -0.0193 C.ar         1    LIG   0.0000
   7 C7           1.2349    -2.8183    -1.2278 C.ar         1    LIG   0.0000
   8 F8           1.2036    -2.1479    -2.3763 F            1    LIG   0.0000
   9 C9           1.2773    -4.2082    -1.2394 C.ar         1    LIG   0.0000
  10 C10          1.3097    -4.9124    -0.0407 C.ar         1    LIG   0.0000
  11 C11          1.3004    -4.2263     1.1683 C.ar         1    LIG   0.0000
  12 C12          1.2590    -2.8359     1.1794 C.ar         1    LIG   0.0000
  13 F13          1.2512    -2.1819     2.3374 F            1    LIG   0.0000
  14 C14         -0.0077     0.0007     0.0038 C.2          1    LIG   0.0000
  15 N15         -0.0136     1.3714     0.0105 N.pl3        1    LIG   0.0000
  16 H           -0.8868     1.8585     0.0222 H            1    LIG   0.0000
  17 H            3.2622     1.9198    -0.0220 H            1    LIG   0.0000
  18 H            3.2781    -0.4597    -0.0347 H            1    LIG   0.0000
  19 H            1.2845    -4.7012    -2.1094 H            1    LIG   0.0000
  20 H            1.3398    -5.9119    -0.0484 H            1    LIG   0.0000
  21 H            1.3233    -4.7325     2.0305 H            1    LIG   0.0000
  22 H           -0.8714    -0.5032     0.0102 H            1    LIG   0.0000
@<TRIPOS>BOND
   1        1        2 2
   2        2        3 1
   3        3        4 2
   4        4        5 1
   5        5        6 1
   6        6        7 ar
   7        7        8 1
   8        7        9 ar
   9        9       10 ar
  10       10       11 ar
  11       11       12 ar
  12       12        6 ar
  13       12       13 1
  14        5       14 2
  15       14       15 1
  16       15        2 1
  17       15       16 1
  18        3       17 1
  19        4       18 1
  20        9       19 1
  21       10       20 1
  22       11       21 1
  23       14       22 1

@<TRIPOS>MOLECULE

  22   23
SMALL
USER_CHARGES
@<TRIPOS>ATOM
   1 O1           1.1543     3.3054     0.0088 O.2          1    LIG   0.0000
   2 C2           1.1561     2.0864     0.0016 C.2          1    LIG   0.0000
   3 C3           2.4036     1.4071    -0.0153 C.2          1    LIG   0.0000
   4 C4           2.4099     0.0363    -0.0222 C.2          1    LIG   0.0000
   5 C5           1.1830    -0.6795    -0.0116 C.2          1    LIG   0.0000
   6 C6           1.2264    -2.1293    -0.0193 C.ar         1    LIG   0.0000
   7 C7           1.8388    -2.8010    -1.0724 C.ar         1    LIG   0.0000
   8 F8           2.3847    -2.1142    -2.0722 F            1    LIG   0.0000
   9 C9           1.8832    -4.1909    -1.0830 C.ar         1    LIG   0.0000
  10 C10          1.3131    -4.9123    -0.0397 C.ar         1    LIG   0.0000
  11 C11          0.6998    -4.2434     1.0134 C.ar         1    LIG   0.0000
  12 C12          0.6566    -2.8532     1.0240 C.ar         1    LIG   0.0000
  13 F13          0.0701    -2.2156     2.0333 F            1    LIG   0.0000
  14 C14         -0.0077     0.0007     0.0038 C.2          1    LIG   0.0000
  15 N15         -0.0136     1.3714     0.0105 N.pl3        1    LIG   0.0000
  16 H           -0.8868     1.8585     0.0222 H            1    LIG   0.0000
  17 H            3.2622     1.9198    -0.0220 H            1    LIG   0.0000
  18 H            3.2781    -0.4597    -0.0347 H            1    LIG   0.0000
  19 H            2.3249    -4.6714    -1.8406 H            1    LIG   0.0000
  20 H            1.3444    -5.9118    -0.0471 H            1    LIG   0.0000
  21 H            0.2895    -4.7620     1.7636 H            1    LIG   0.0000
  22 H           -0.8714    -0.5032     0.0102 H            1    LIG   0.0000
@<TRIPOS>BOND
   1        1        2 2
   2        2        3 1
   3        3        4 2
   4        4        5 1
   5        5        6 1
   6        6        7 ar
   7        7        8 1
   8        7        9 ar
   9        9       10 ar
  10       10       11 ar
  11       11       12 ar
  12       12        6 ar
  13       12       13 1
  14        5       14 2
  15       14       15 1
  16       15        2 1
  17       15       16 1
  18        3       17 1
  19        4       18 1
  20        9       19 1
  21       10       20 1
  22       11       21 1
  23       14       22 1

@<TRIPOS>MOLECULE

  22   23
SMALL
USER_CHARGES
@<TRIPOS>ATOM
   1 O1           1.1543     3.3054     0.0088 O.2          1    LIG   0.0000
   2 C2           1.1561     2.0864     0.0016 C.2          1    LIG   0.0000
   3 C3           2.4036     1.4071    -0.0153 C.2          1    LIG   0.0000
   4 C4           2.4099     0.0363    -0.0222 C.2          1    LIG   0.0000
   5 C5           1.1830    -0.6795    -0.0116 C.2          1    LIG   0.0000
   6 C6           1.2264    -2.1293    -0.0193 C.ar         1    LIG   0.0000
   7 C7           0.6343    -2.8371    -1.0604 C.ar         1    LIG   0.0000
   8 F8           0.0288    -2.1848    -2.0489 F            1    LIG   0.0000
   9 C9           0.6745    -4.2271    -1.0717 C.ar         1    LIG   0.0000
  10 C10          1.3063    -4.9125    -0.0398 C.ar         1    LIG   0.0000
  11 C11          1.8978    -4.2075     1.0022 C.ar         1    LIG   0.0000
  12 C12          1.8583    -2.8171     1.0125 C.ar         1    LIG   0.0000
  13 F13          2.4260    -2.1450     2.0100 F            1    LIG   0.0000
  14 C14         -0.0077     0.0007     0.0038 C.2          1    LIG   0.0000
  15 N15         -0.0136     1.3714     0.0105 N.pl3        1    LIG   0.0000
  16 H           -0.8868     1.8585     0.0222 H            1    LIG   0.0000
  17 H            3.2622     1.9198    -0.0220 H            1    LIG   0.0000
  18 H            3.2781    -0.4597    -0.0347 H            1    LIG   0.0000
  19 H            0.2492    -4.7336    -1.8218 H            1    LIG   0.0000
  20 H            1.3351    -5.9121    -0.0473 H            1    LIG   0.0000
  21 H            2.3519    -4.7002     1.7445 H            1    LIG   0.0000
  22 H           -0.8714    -0.5032     0.0102 H            1    LIG   0.0000
@<TRIPOS>BOND
   1        1        2 2
   2        2        3 1
   3        3        4 2
   4        4        5 1
   5        5        6 1
   6        6        7 ar
   7        7        8 1
   8        7        9 ar
   9        9       10 ar
  10       10       11 ar
  11       11       12 ar
  12       12        6 ar
  13       12       13 1
  14        5       14 2
  15       14       15 1
  16       15        2 1
  17       15       16 1
  18        3       17 1
  19        4       18 1
  20        9       19 1
  21       10       20 1
  22       11       21 1
  23       14       22 1

@<TRIPOS>MOLECULE

  22   23
SMALL
USER_CHARGES
@<TRIPOS>ATOM
   1 O1           1.1543     3.3054     0.0088 O.2          1    LIG   0.0000
   2 C2           1.1561     2.0864     0.0016 C.2          1    LIG   0.0000
   3 C3           2.4036     1.4071    -0.0153 C.2          1    LIG   0.0000
   4 C4           2.4099     0.0363    -0.0222 C.2          1    LIG   0.0000
   5 C5           1.1830    -0.6795    -0.0116 C.2          1    LIG   0.0000
   6 C6           1.2264    -2.1293    -0.0193 C.ar         1    LIG   0.0000
   7 C7           2.2841    -2.7900    -0.6358 C.ar         1    LIG   0.0000
   8 F8           3.2557    -2.0926    -1.2181 F            1    LIG   0.0000
   9 C9           2.3298    -4.1798    -0.6445 C.ar         1    LIG   0.0000
  10 C10          1.3156    -4.9123    -0.0372 C.ar         1    LIG   0.0000
  11 C11          0.2571    -4.2544     0.5788 C.ar         1    LIG   0.0000
  12 C12          0.2124    -2.8642     0.5882 C.ar         1    LIG   0.0000
  13 F13         -0.8008    -2.2372     1.1791 F            1    LIG   0.0000
  14 C14         -0.0077     0.0007     0.0038 C.2          1    LIG   0.0000
  15 N15         -0.0136     1.3714     0.0105 N.pl3        1    LIG   0.0000
  16 H           -0.8868     1.8585     0.0222 H            1    LIG   0.0000
  17 H            3.2622     1.9198    -0.0220 H            1    LIG   0.0000
  18 H            3.2781    -0.4597    -0.0347 H            1    LIG   0.0000
  19 H            3.0917    -4.6524    -1.0874 H            1    LIG   0.0000
  20 H            1.3477    -5.9117    -0.0436 H            1    LIG   0.0000
  21 H           -0.4725    -4.7809     1.0153 H            1    LIG   0.0000
  22 H           -0.8714    -0.5032     0.0102 H            1    LIG   0.0000
@<TRIPOS>BOND
   1        1        2 2
   2        2        3 1
   3        3        4 2
   4        4        5 1
   5        5        6 1
   6        6        7 ar
   7        7        8 1
   8        7        9 ar
   9        9       10 ar
  10       10       11 ar
  11       11       12 ar
  12       12        6 ar
  13       12       13 1
  14        5       14 2
  15       14       15 1
  16       15        2 1
  17       15       16 1
  18        3       17 1
  19        4       18 1
  20        9       19 1
  21       10       20 1
  22       11       21 1
  23       14       22 1

@<TRIPOS>MOLECULE

  22   23
SMALL
USER_CHARGES
@<TRIPOS>ATOM
   1 O1           1.1543     3.3054     0.0088 O.2          1    LIG   0.0000
   2 C2           1.1561     2.0864     0.0016 C.2          1    LIG   0.0000
   3 C3           2.4036     1.4071    -0.0153 C.2          1    LIG   0.0000
   4 C4           2.4099     0.0363    -0.0222 C.2          1    LIG   0.0000
   5 C5           1.1830    -0.6795    -0.0116 C.2          1    LIG   0.0000
   6 C6           1.2264    -2.1293    -0.0193 C.ar         1    LIG   0.0000
   7 C7           0.1980    -2.8525    -0.6149 C.ar         1    LIG   0.0000
   8 F8          -0.8249    -2.2149    -1.1776 F            1    LIG   0.0000
   9 C9           0.2363    -4.2426    -0.6250 C.ar         1    LIG   0.0000
  10 C10          1.3038    -4.9126    -0.0373 C.ar         1    LIG   0.0000
  11 C11          2.3322    -4.1922     0.5593 C.ar         1    LIG   0.0000
  12 C12          2.2939    -2.8018     0.5683 C.ar         1    LIG   0.0000
  13 F13          3.2796    -2.1149     1.1388 F            1    LIG   0.0000
  14 C14         -0.0077     0.0007     0.0038 C.2          1    LIG   0.0000
  15 N15         -0.0136     1.3714     0.0105 N.pl3        1    LIG   0.0000
  16 H           -0.8868     1.8585     0.0222 H            1    LIG   0.0000
  17 H            3.2622     1.9198    -0.0220 H            1    LIG   0.0000
  18 H            3.2781    -0.4597    -0.0347 H            1    LIG   0.0000
  19 H           -0.5035    -4.7602    -1.0548 H            1    LIG   0.0000
  20 H            1.3316    -5.9122    -0.0439 H            1    LIG   0.0000
  21 H            3.0997    -4.6738     0.9823 H            1    LIG   0.0000
  22 H           -0.8714    -0.5032     0.0102 H            1    LIG   0.0000
@<TRIPOS>BOND
   1        1        2 2
   2        2        3 1
   3        3        4 2
   4        4        5 1
   5        5        6 1
   6        6        7 ar
   7        7        8 1
   8        7        9 ar
   9        9       10 ar
  10       10       11 ar
  11       11       12 ar
  12       12        6 ar
  13       12       13 1
  14        5       14 2
  15       14       15 1
  16       15        2 1
  17       15       16 1
  18        3       17 1
  19        4       18 1
  20        9       19 1
  21       10       20 1
  22       11       21 1
  23       14       22 1

