@<TRIPOS>MOLECULE
*****
 22 23 0 0 0
SMALL
USER_CHARGES

@<TRIPOS>ATOM
      1 O1          1.1543    3.3054    0.0088 O.2     1  LIG1        0.0000
      2 C2          1.1561    2.0864    0.0016 C.2     1  LIG1        0.0000
      3 C3          2.4036    1.4071   -0.0153 C.2     1  LIG1        0.0000
      4 C4          2.4099    0.0363   -0.0222 C.2     1  LIG1        0.0000
      5 C5          1.1830   -0.6795   -0.0116 C.2     1  LIG1        0.0000
      6 C6          1.2264   -2.1293   -0.0193 C.3     1  LIG1        0.0000
      7 C7          0.1980   -2.8525   -0.6149 C.3     1  LIG1        0.0000
      8 F8         -0.8249   -2.2149   -1.1776 F       1  LIG1        0.0000
      9 C9          0.2363   -4.2426   -0.6250 C.3     1  LIG1        0.0000
     10 C10         1.3038   -4.9126   -0.0373 C.3     1  LIG1        0.0000
     11 C11         2.3322   -4.1922    0.5593 C.3     1  LIG1        0.0000
     12 C12         2.2939   -2.8018    0.5683 C.3     1  LIG1        0.0000
     13 F13         3.2796   -2.1149    1.1388 F       1  LIG1        0.0000
     14 C14        -0.0077    0.0007    0.0038 C.2     1  LIG1        0.0000
     15 N15        -0.0136    1.3714    0.0105 N.am    1  LIG1        0.0000
     16 H          -0.8868    1.8585    0.0222 H       1  LIG1        0.0000
     17 H           3.2622    1.9198   -0.0220 H       1  LIG1        0.0000
     18 H           3.2781   -0.4597   -0.0347 H       1  LIG1        0.0000
     19 H          -0.5035   -4.7602   -1.0548 H       1  LIG1        0.0000
     20 H           1.3316   -5.9122   -0.0439 H       1  LIG1        0.0000
     21 H           3.0997   -4.6738    0.9823 H       1  LIG1        0.0000
     22 H          -0.8714   -0.5032    0.0102 H       1  LIG1        0.0000
@<TRIPOS>BOND
     1     1     2    2
     2     2     3    1
     3     3     4    2
     4     4     5    1
     5     5     6    1
     6     6     7   ar
     7     7     8    1
     8     7     9   ar
     9     9    10   ar
    10    10    11   ar
    11    11    12   ar
    12    12     6   ar
    13    12    13    1
    14     5    14    2
    15    14    15    1
    16    15     2   am
    17    15    16    1
    18     3    17    1
    19     4    18    1
    20     9    19    1
    21    10    20    1
    22    11    21    1
    23    14    22    1
