@<TRIPOS>MOLECULE

  63   66
SMALL
USER_CHARGES
@<TRIPOS>ATOM
   1 C1          -1.1550     2.1865     1.0000 C.3          1    LIG   0.0000
   2 N2           0.3150     2.1865     1.0000 N.am         1    LIG   0.0000
   3 C3           1.0000     1.0000     1.0000 C.2          1    LIG   0.0000
   4 O4           0.4000    -0.0392     1.0000 O.2          1    LIG   0.0000
   5 C5           2.5200     1.0000     1.0000 C.3          1    LIG   0.0000
   6 N6           3.0100    -0.3859     1.0000 N.3          1    LIG   0.0000
   7 C7           4.4604    -0.4261     0.7791 C.3          1    LIG   0.0000
   8 C8           4.8257    -1.8693     0.4536 C.3          1    LIG   0.0000
   9 C9           4.3707    -2.8275     1.5460 C.ar         1    LIG   0.0000
  10 C10          3.3481    -2.4197     2.3926 C.ar         1    LIG   0.0000
  11 C11          2.8641    -3.2714     3.3774 C.ar         1    LIG   0.0000
  12 C12          3.4363    -4.5324     3.5133 C.ar         1    LIG   0.0000
  13 C13          4.4767    -4.9373     2.6822 C.ar         1    LIG   0.0000
  14 C14          4.9503    -4.0811     1.6942 C.ar         1    LIG   0.0000
  15 N15          5.9958    -4.5231     0.8704 N.pl3        1    LIG   0.0000
  16 S16          5.9045    -5.9824     0.1500 S.o2         1    LIG   0.0000
  17 C17          4.6336    -5.9410    -1.1380 C.3          1    LIG   0.0000
  18 O18          7.1769    -6.3062    -0.4413 O.2          1    LIG   0.0000
  19 O19          5.5626    -6.9808     1.1298 O.2          1    LIG   0.0000
  20 C20          2.7382    -1.0274     2.2916 C.3          1    LIG   0.0000
  21 C21          1.0152     3.3993     1.0000 C.ar         1    LIG   0.0000
  22 C22          1.3504     3.9771    -0.2205 C.ar         1    LIG   0.0000
  23 C23          2.0450     5.1820    -0.2523 C.ar         1    LIG   0.0000
  24 C24          2.4062     5.8085     0.9360 C.ar         1    LIG   0.0000
  25 C25          2.0724     5.2300     2.1570 C.ar         1    LIG   0.0000
  26 C26          1.3769     4.0257     2.1892 C.ar         1    LIG   0.0000
  27 C27          1.0289     3.4232     3.4615 C.2          1    LIG   0.0000
  28 O28          0.4290     2.3842     3.4894 O.2          1    LIG   0.0000
  29 N29          1.3851     4.0401     4.6318 N.am         1    LIG   0.0000
  30 C30          1.0324     3.4293     5.9216 C.3          1    LIG   0.0000
  31 C31          2.1513     2.5027     6.3659 C.2          1    LIG   0.0000
  32 C32          3.2158     2.8782     7.1280 C.2          1    LIG   0.0000
  33 C33          3.9855     1.7030     7.2839 C.2          1    LIG   0.0000
  34 C34          3.3331     0.7175     6.6068 C.2          1    LIG   0.0000
  35 O35          2.2438     1.2243     6.0757 O.2          1    LIG   0.0000
  36 H           -1.4883     1.2436     1.0000 H            1    LIG   0.0000
  37 H           -1.4883     2.6579     1.8165 H            1    LIG   0.0000
  38 H           -1.4883     2.6579     0.1835 H            1    LIG   0.0000
  39 H            2.8533     1.4714     0.1835 H            1    LIG   0.0000
  40 H            2.8533     1.4714     1.8165 H            1    LIG   0.0000
  41 H            4.9411    -0.1285     1.6040 H            1    LIG   0.0000
  42 H            4.7075     0.1706     0.0157 H            1    LIG   0.0000
  43 H            4.3874    -2.1280    -0.4072 H            1    LIG   0.0000
  44 H            5.8186    -1.9377     0.3558 H            1    LIG   0.0000
  45 H            2.1180    -2.9835     3.9778 H            1    LIG   0.0000
  46 H            3.0956    -5.1559     4.2170 H            1    LIG   0.0000
  47 H            4.8836    -5.8437     2.7955 H            1    LIG   0.0000
  48 H            6.7972    -3.9429     0.7249 H            1    LIG   0.0000
  49 H            3.7500    -5.7162    -0.7274 H            1    LIG   0.0000
  50 H            4.8710    -5.2477    -1.8184 H            1    LIG   0.0000
  51 H            4.5776    -6.8363    -1.5800 H            1    LIG   0.0000
  52 H            1.7480    -1.1019     2.4104 H            1    LIG   0.0000
  53 H            3.1192    -0.4570     3.0192 H            1    LIG   0.0000
  54 H            1.0919     3.5262    -1.0749 H            1    LIG   0.0000
  55 H            2.2848     5.5978    -1.1296 H            1    LIG   0.0000
  56 H            2.9056     6.6746     0.9129 H            1    LIG   0.0000
  57 H            2.3326     5.6802     3.0112 H            1    LIG   0.0000
  58 H            1.8850     4.9058     4.6086 H            1    LIG   0.0000
  59 H            0.1860     2.9061     5.8223 H            1    LIG   0.0000
  60 H            0.9024     4.1469     6.6057 H            1    LIG   0.0000
  61 H            3.4103     3.7871     7.4968 H            1    LIG   0.0000
  62 H            4.8420     1.6128     7.7922 H            1    LIG   0.0000
  63 H            3.6333    -0.2331     6.5272 H            1    LIG   0.0000
@<TRIPOS>BOND
   1        1        2 1
   2        2        3 am
   3        3        4 2
   4        3        5 1
   5        5        6 1
   6        6        7 1
   7        7        8 1
   8        8        9 1
   9        9       10 ar
  10       10       11 ar
  11       11       12 ar
  12       12       13 ar
  13       13       14 ar
  14       14        9 ar
  15       14       15 1
  16       15       16 1
  17       16       17 1
  18       16       18 2
  19       16       19 2
  20       10       20 1
  21       20        6 1
  22        2       21 1
  23       21       22 ar
  24       22       23 ar
  25       23       24 ar
  26       24       25 ar
  27       25       26 ar
  28       26       21 ar
  29       26       27 1
  30       27       28 2
  31       27       29 am
  32       29       30 1
  33       30       31 1
  34       31       32 2
  35       32       33 1
  36       33       34 2
  37       34       35 1
  38       35       31 1
  39        1       36 1
  40        1       37 1
  41        1       38 1
  42        5       39 1
  43        5       40 1
  44        7       41 1
  45        7       42 1
  46        8       43 1
  47        8       44 1
  48       11       45 1
  49       12       46 1
  50       13       47 1
  51       15       48 1
  52       17       49 1
  53       17       50 1
  54       17       51 1
  55       20       52 1
  56       20       53 1
  57       22       54 1
  58       23       55 1
  59       24       56 1
  60       25       57 1
  61       29       58 1
  62       30       59 1
  63       30       60 1
  64       32       61 1
  65       33       62 1
  66       34       63 1

@<TRIPOS>MOLECULE

  63   66
SMALL
USER_CHARGES
@<TRIPOS>ATOM
   1 C1          -1.1550     2.1865     1.0000 C.3          1    LIG   0.0000
   2 N2           0.3150     2.1865     1.0000 N.am         1    LIG   0.0000
   3 C3           1.0000     1.0000     1.0000 C.2          1    LIG   0.0000
   4 O4           0.4000    -0.0392     1.0000 O.2          1    LIG   0.0000
   5 C5           2.5200     1.0000     1.0000 C.3          1    LIG   0.0000
   6 N6           3.0100    -0.3859     1.0000 N.3          1    LIG   0.0000
   7 C7           4.4604    -0.4261     0.7791 C.3          1    LIG   0.0000
   8 C8           4.8257    -1.8693     0.4536 C.3          1    LIG   0.0000
   9 C9           4.3707    -2.8275     1.5460 C.ar         1    LIG   0.0000
  10 C10          3.3481    -2.4197     2.3926 C.ar         1    LIG   0.0000
  11 C11          2.8641    -3.2714     3.3774 C.ar         1    LIG   0.0000
  12 C12          3.4363    -4.5324     3.5133 C.ar         1    LIG   0.0000
  13 C13          4.4767    -4.9373     2.6822 C.ar         1    LIG   0.0000
  14 C14          4.9503    -4.0811     1.6942 C.ar         1    LIG   0.0000
  15 N15          5.9958    -4.5231     0.8704 N.pl3        1    LIG   0.0000
  16 S16          5.9045    -5.9824     0.1500 S.o2         1    LIG   0.0000
  17 C17          4.6336    -5.9410    -1.1380 C.3          1    LIG   0.0000
  18 O18          7.1769    -6.3062    -0.4413 O.2          1    LIG   0.0000
  19 O19          5.5626    -6.9808     1.1298 O.2          1    LIG   0.0000
  20 C20          2.7382    -1.0274     2.2916 C.3          1    LIG   0.0000
  21 C21          1.0152     3.3993     1.0000 C.ar         1    LIG   0.0000
  22 C22          1.3504     3.9771    -0.2205 C.ar         1    LIG   0.0000
  23 C23          2.0450     5.1820    -0.2523 C.ar         1    LIG   0.0000
  24 C24          2.4062     5.8085     0.9360 C.ar         1    LIG   0.0000
  25 C25          2.0724     5.2300     2.1570 C.ar         1    LIG   0.0000
  26 C26          1.3769     4.0257     2.1892 C.ar         1    LIG   0.0000
  27 C27          1.0289     3.4232     3.4615 C.2          1    LIG   0.0000
  28 O28          0.4290     2.3842     3.4894 O.2          1    LIG   0.0000
  29 N29          1.3851     4.0401     4.6318 N.am         1    LIG   0.0000
  30 C30          1.0324     3.4293     5.9216 C.3          1    LIG   0.0000
  31 C31         -0.3295     3.9351     6.3658 C.2          1    LIG   0.0000
  32 C32         -1.5174     3.3459     6.0551 C.2          1    LIG   0.0000
  33 C33         -2.4985     4.1551     6.6719 C.2          1    LIG   0.0000
  34 C34         -1.8326     5.1640     7.2997 C.2          1    LIG   0.0000
  35 O35         -0.5440     5.0022     7.1023 O.2          1    LIG   0.0000
  36 H           -1.4883     1.2436     1.0000 H            1    LIG   0.0000
  37 H           -1.4883     2.6579     1.8165 H            1    LIG   0.0000
  38 H           -1.4883     2.6579     0.1835 H            1    LIG   0.0000
  39 H            2.8533     1.4714     0.1835 H            1    LIG   0.0000
  40 H            2.8533     1.4714     1.8165 H            1    LIG   0.0000
  41 H            4.9411    -0.1285     1.6040 H            1    LIG   0.0000
  42 H            4.7075     0.1706     0.0157 H            1    LIG   0.0000
  43 H            4.3874    -2.1280    -0.4072 H            1    LIG   0.0000
  44 H            5.8186    -1.9377     0.3558 H            1    LIG   0.0000
  45 H            2.1180    -2.9835     3.9778 H            1    LIG   0.0000
  46 H            3.0956    -5.1559     4.2170 H            1    LIG   0.0000
  47 H            4.8836    -5.8437     2.7955 H            1    LIG   0.0000
  48 H            6.7972    -3.9429     0.7249 H            1    LIG   0.0000
  49 H            3.7500    -5.7162    -0.7274 H            1    LIG   0.0000
  50 H            4.8710    -5.2477    -1.8184 H            1    LIG   0.0000
  51 H            4.5776    -6.8363    -1.5800 H            1    LIG   0.0000
  52 H            1.7480    -1.1019     2.4104 H            1    LIG   0.0000
  53 H            3.1192    -0.4570     3.0192 H            1    LIG   0.0000
  54 H            1.0919     3.5262    -1.0749 H            1    LIG   0.0000
  55 H            2.2848     5.5978    -1.1296 H            1    LIG   0.0000
  56 H            2.9056     6.6746     0.9129 H            1    LIG   0.0000
  57 H            2.3326     5.6802     3.0112 H            1    LIG   0.0000
  58 H            1.8850     4.9058     4.6086 H            1    LIG   0.0000
  59 H            1.7189     3.6755     6.6058 H            1    LIG   0.0000
  60 H            1.0024     2.4347     5.8223 H            1    LIG   0.0000
  61 H           -1.6636     2.5207     5.5095 H            1    LIG   0.0000
  62 H           -3.4883     4.0144     6.6514 H            1    LIG   0.0000
  63 H           -2.2543     5.9042     7.8235 H            1    LIG   0.0000
@<TRIPOS>BOND
   1        1        2 1
   2        2        3 am
   3        3        4 2
   4        3        5 1
   5        5        6 1
   6        6        7 1
   7        7        8 1
   8        8        9 1
   9        9       10 ar
  10       10       11 ar
  11       11       12 ar
  12       12       13 ar
  13       13       14 ar
  14       14        9 ar
  15       14       15 1
  16       15       16 1
  17       16       17 1
  18       16       18 2
  19       16       19 2
  20       10       20 1
  21       20        6 1
  22        2       21 1
  23       21       22 ar
  24       22       23 ar
  25       23       24 ar
  26       24       25 ar
  27       25       26 ar
  28       26       21 ar
  29       26       27 1
  30       27       28 2
  31       27       29 am
  32       29       30 1
  33       30       31 1
  34       31       32 2
  35       32       33 1
  36       33       34 2
  37       34       35 1
  38       35       31 1
  39        1       36 1
  40        1       37 1
  41        1       38 1
  42        5       39 1
  43        5       40 1
  44        7       41 1
  45        7       42 1
  46        8       43 1
  47        8       44 1
  48       11       45 1
  49       12       46 1
  50       13       47 1
  51       15       48 1
  52       17       49 1
  53       17       50 1
  54       17       51 1
  55       20       52 1
  56       20       53 1
  57       22       54 1
  58       23       55 1
  59       24       56 1
  60       25       57 1
  61       29       58 1
  62       30       59 1
  63       30       60 1
  64       32       61 1
  65       33       62 1
  66       34       63 1

@<TRIPOS>MOLECULE

  63   66
SMALL
USER_CHARGES
@<TRIPOS>ATOM
   1 C1          -1.1550     2.1865     1.0000 C.3          1    LIG   0.0000
   2 N2           0.3150     2.1865     1.0000 N.am         1    LIG   0.0000
   3 C3           1.0000     1.0000     1.0000 C.2          1    LIG   0.0000
   4 O4           0.4000    -0.0392     1.0000 O.2          1    LIG   0.0000
   5 C5           2.5200     1.0000     1.0000 C.3          1    LIG   0.0000
   6 N6           3.0100    -0.3859     1.0000 N.3          1    LIG   0.0000
   7 C7           4.4604    -0.4261     0.7791 C.3          1    LIG   0.0000
   8 C8           4.8257    -1.8693     0.4536 C.3          1    LIG   0.0000
   9 C9           4.3707    -2.8275     1.5460 C.ar         1    LIG   0.0000
  10 C10          3.3481    -2.4197     2.3926 C.ar         1    LIG   0.0000
  11 C11          2.8641    -3.2714     3.3774 C.ar         1    LIG   0.0000
  12 C12          3.4363    -4.5324     3.5133 C.ar         1    LIG   0.0000
  13 C13          4.4767    -4.9373     2.6822 C.ar         1    LIG   0.0000
  14 C14          4.9503    -4.0811     1.6942 C.ar         1    LIG   0.0000
  15 N15          5.9958    -4.5231     0.8704 N.pl3        1    LIG   0.0000
  16 S16          5.9045    -5.9824     0.1500 S.o2         1    LIG   0.0000
  17 C17          4.6336    -5.9410    -1.1380 C.3          1    LIG   0.0000
  18 O18          7.1769    -6.3062    -0.4413 O.2          1    LIG   0.0000
  19 O19          5.5626    -6.9808     1.1298 O.2          1    LIG   0.0000
  20 C20          2.7382    -1.0274     2.2916 C.3          1    LIG   0.0000
  21 C21          1.0152     3.3993     1.0000 C.ar         1    LIG   0.0000
  22 C22          1.3480     3.9784     2.2205 C.ar         1    LIG   0.0000
  23 C23          2.0442     5.1825     2.2523 C.ar         1    LIG   0.0000
  24 C24          2.4062     5.8085     1.0640 C.ar         1    LIG   0.0000
  25 C25          2.0721     5.2302    -0.1570 C.ar         1    LIG   0.0000
  26 C26          1.3769     4.0257    -0.1892 C.ar         1    LIG   0.0000
  27 C27          1.0291     3.4231    -1.4615 C.2          1    LIG   0.0000
  28 O28          0.4293     2.3841    -1.4894 O.2          1    LIG   0.0000
  29 N29          1.3852     4.0400    -2.6318 N.am         1    LIG   0.0000
  30 C30          1.0326     3.4292    -3.9216 C.3          1    LIG   0.0000
  31 C31         -0.3293     3.9348    -4.3659 C.2          1    LIG   0.0000
  32 C32         -0.5363     5.0445    -5.1280 C.2          1    LIG   0.0000
  33 C33         -1.9389     5.1235    -5.2839 C.2          1    LIG   0.0000
  34 C34         -2.4663     4.0658    -4.6068 C.2          1    LIG   0.0000
  35 O35         -1.4826     3.3757    -4.0757 O.2          1    LIG   0.0000
  36 H           -1.4883     1.2436     1.0000 H            1    LIG   0.0000
  37 H           -1.4883     2.6579     1.8165 H            1    LIG   0.0000
  38 H           -1.4883     2.6579     0.1835 H            1    LIG   0.0000
  39 H            2.8533     1.4714     0.1835 H            1    LIG   0.0000
  40 H            2.8533     1.4714     1.8165 H            1    LIG   0.0000
  41 H            4.9411    -0.1285     1.6040 H            1    LIG   0.0000
  42 H            4.7075     0.1706     0.0157 H            1    LIG   0.0000
  43 H            4.3874    -2.1280    -0.4072 H            1    LIG   0.0000
  44 H            5.8186    -1.9377     0.3558 H            1    LIG   0.0000
  45 H            2.1180    -2.9835     3.9778 H            1    LIG   0.0000
  46 H            3.0956    -5.1559     4.2170 H            1    LIG   0.0000
  47 H            4.8836    -5.8437     2.7955 H            1    LIG   0.0000
  48 H            6.7972    -3.9429     0.7249 H            1    LIG   0.0000
  49 H            3.7500    -5.7162    -0.7274 H            1    LIG   0.0000
  50 H            4.8710    -5.2477    -1.8184 H            1    LIG   0.0000
  51 H            4.5776    -6.8363    -1.5800 H            1    LIG   0.0000
  52 H            1.7480    -1.1019     2.4104 H            1    LIG   0.0000
  53 H            3.1192    -0.4570     3.0192 H            1    LIG   0.0000
  54 H            1.0868     3.5292     3.0749 H            1    LIG   0.0000
  55 H            2.2844     5.5980     3.1296 H            1    LIG   0.0000
  56 H            2.9065     6.6741     1.0871 H            1    LIG   0.0000
  57 H            2.3318     5.6806    -1.0112 H            1    LIG   0.0000
  58 H            1.8850     4.9058    -2.6086 H            1    LIG   0.0000
  59 H            1.0028     2.4345    -3.8223 H            1    LIG   0.0000
  60 H            1.7191     3.6754    -4.6057 H            1    LIG   0.0000
  61 H            0.1535     5.6674    -5.4968 H            1    LIG   0.0000
  62 H           -2.4453     5.8201    -5.7922 H            1    LIG   0.0000
  63 H           -3.4396     3.8505    -4.5272 H            1    LIG   0.0000
@<TRIPOS>BOND
   1        1        2 1
   2        2        3 am
   3        3        4 2
   4        3        5 1
   5        5        6 1
   6        6        7 1
   7        7        8 1
   8        8        9 1
   9        9       10 ar
  10       10       11 ar
  11       11       12 ar
  12       12       13 ar
  13       13       14 ar
  14       14        9 ar
  15       14       15 1
  16       15       16 1
  17       16       17 1
  18       16       18 2
  19       16       19 2
  20       10       20 1
  21       20        6 1
  22        2       21 1
  23       21       22 ar
  24       22       23 ar
  25       23       24 ar
  26       24       25 ar
  27       25       26 ar
  28       26       21 ar
  29       26       27 1
  30       27       28 2
  31       27       29 am
  32       29       30 1
  33       30       31 1
  34       31       32 2
  35       32       33 1
  36       33       34 2
  37       34       35 1
  38       35       31 1
  39        1       36 1
  40        1       37 1
  41        1       38 1
  42        5       39 1
  43        5       40 1
  44        7       41 1
  45        7       42 1
  46        8       43 1
  47        8       44 1
  48       11       45 1
  49       12       46 1
  50       13       47 1
  51       15       48 1
  52       17       49 1
  53       17       50 1
  54       17       51 1
  55       20       52 1
  56       20       53 1
  57       22       54 1
  58       23       55 1
  59       24       56 1
  60       25       57 1
  61       29       58 1
  62       30       59 1
  63       30       60 1
  64       32       61 1
  65       33       62 1
  66       34       63 1

@<TRIPOS>MOLECULE

  63   66
SMALL
USER_CHARGES
@<TRIPOS>ATOM
   1 C1          -1.1550     2.1865     1.0000 C.3          1    LIG   0.0000
   2 N2           0.3150     2.1865     1.0000 N.am         1    LIG   0.0000
   3 C3           1.0000     1.0000     1.0000 C.2          1    LIG   0.0000
   4 O4           0.4000    -0.0392     1.0000 O.2          1    LIG   0.0000
   5 C5           2.5200     1.0000     1.0000 C.3          1    LIG   0.0000
   6 N6           3.0100    -0.3859     1.0000 N.3          1    LIG   0.0000
   7 C7           4.4604    -0.4261     0.7791 C.3          1    LIG   0.0000
   8 C8           4.8257    -1.8693     0.4536 C.3          1    LIG   0.0000
   9 C9           4.3707    -2.8275     1.5460 C.ar         1    LIG   0.0000
  10 C10          3.3481    -2.4197     2.3926 C.ar         1    LIG   0.0000
  11 C11          2.8641    -3.2714     3.3774 C.ar         1    LIG   0.0000
  12 C12          3.4363    -4.5324     3.5133 C.ar         1    LIG   0.0000
  13 C13          4.4767    -4.9373     2.6822 C.ar         1    LIG   0.0000
  14 C14          4.9503    -4.0811     1.6942 C.ar         1    LIG   0.0000
  15 N15          5.9958    -4.5231     0.8704 N.pl3        1    LIG   0.0000
  16 S16          5.9045    -5.9824     0.1500 S.o2         1    LIG   0.0000
  17 C17          4.6336    -5.9410    -1.1380 C.3          1    LIG   0.0000
  18 O18          7.1769    -6.3062    -0.4413 O.2          1    LIG   0.0000
  19 O19          5.5626    -6.9808     1.1298 O.2          1    LIG   0.0000
  20 C20          2.7382    -1.0274     2.2916 C.3          1    LIG   0.0000
  21 C21          1.0152     3.3993     1.0000 C.ar         1    LIG   0.0000
  22 C22          1.3480     3.9784     2.2205 C.ar         1    LIG   0.0000
  23 C23          2.0442     5.1825     2.2523 C.ar         1    LIG   0.0000
  24 C24          2.4062     5.8085     1.0640 C.ar         1    LIG   0.0000
  25 C25          2.0721     5.2302    -0.1570 C.ar         1    LIG   0.0000
  26 C26          1.3769     4.0257    -0.1892 C.ar         1    LIG   0.0000
  27 C27          1.0291     3.4231    -1.4615 C.2          1    LIG   0.0000
  28 O28          0.4293     2.3841    -1.4894 O.2          1    LIG   0.0000
  29 N29          1.3852     4.0400    -2.6318 N.am         1    LIG   0.0000
  30 C30          1.0326     3.4292    -3.9216 C.3          1    LIG   0.0000
  31 C31          2.1516     2.5026    -4.3658 C.2          1    LIG   0.0000
  32 C32          2.2353     1.1793    -4.0551 C.2          1    LIG   0.0000
  33 C33          3.4266     0.7342    -4.6719 C.2          1    LIG   0.0000
  34 C34          3.9674     1.8153    -5.2997 C.2          1    LIG   0.0000
  35 O35          3.1830     2.8504    -5.1023 O.2          1    LIG   0.0000
  36 H           -1.4883     1.2436     1.0000 H            1    LIG   0.0000
  37 H           -1.4883     2.6579     1.8165 H            1    LIG   0.0000
  38 H           -1.4883     2.6579     0.1835 H            1    LIG   0.0000
  39 H            2.8533     1.4714     0.1835 H            1    LIG   0.0000
  40 H            2.8533     1.4714     1.8165 H            1    LIG   0.0000
  41 H            4.9411    -0.1285     1.6040 H            1    LIG   0.0000
  42 H            4.7075     0.1706     0.0157 H            1    LIG   0.0000
  43 H            4.3874    -2.1280    -0.4072 H            1    LIG   0.0000
  44 H            5.8186    -1.9377     0.3558 H            1    LIG   0.0000
  45 H            2.1180    -2.9835     3.9778 H            1    LIG   0.0000
  46 H            3.0956    -5.1559     4.2170 H            1    LIG   0.0000
  47 H            4.8836    -5.8437     2.7955 H            1    LIG   0.0000
  48 H            6.7972    -3.9429     0.7249 H            1    LIG   0.0000
  49 H            3.7500    -5.7162    -0.7274 H            1    LIG   0.0000
  50 H            4.8710    -5.2477    -1.8184 H            1    LIG   0.0000
  51 H            4.5776    -6.8363    -1.5800 H            1    LIG   0.0000
  52 H            1.7480    -1.1019     2.4104 H            1    LIG   0.0000
  53 H            3.1192    -0.4570     3.0192 H            1    LIG   0.0000
  54 H            1.0868     3.5292     3.0749 H            1    LIG   0.0000
  55 H            2.2844     5.5980     3.1296 H            1    LIG   0.0000
  56 H            2.9065     6.6741     1.0871 H            1    LIG   0.0000
  57 H            2.3318     5.6806    -1.0112 H            1    LIG   0.0000
  58 H            1.8850     4.9058    -2.6086 H            1    LIG   0.0000
  59 H            0.9026     4.1467    -4.6058 H            1    LIG   0.0000
  60 H            0.1863     2.9059    -3.8223 H            1    LIG   0.0000
  61 H            1.5938     0.6400    -3.5095 H            1    LIG   0.0000
  62 H            3.7997    -0.1934    -4.6514 H            1    LIG   0.0000
  63 H            4.8193     1.8202    -5.8235 H            1    LIG   0.0000
@<TRIPOS>BOND
   1        1        2 1
   2        2        3 am
   3        3        4 2
   4        3        5 1
   5        5        6 1
   6        6        7 1
   7        7        8 1
   8        8        9 1
   9        9       10 ar
  10       10       11 ar
  11       11       12 ar
  12       12       13 ar
  13       13       14 ar
  14       14        9 ar
  15       14       15 1
  16       15       16 1
  17       16       17 1
  18       16       18 2
  19       16       19 2
  20       10       20 1
  21       20        6 1
  22        2       21 1
  23       21       22 ar
  24       22       23 ar
  25       23       24 ar
  26       24       25 ar
  27       25       26 ar
  28       26       21 ar
  29       26       27 1
  30       27       28 2
  31       27       29 am
  32       29       30 1
  33       30       31 1
  34       31       32 2
  35       32       33 1
  36       33       34 2
  37       34       35 1
  38       35       31 1
  39        1       36 1
  40        1       37 1
  41        1       38 1
  42        5       39 1
  43        5       40 1
  44        7       41 1
  45        7       42 1
  46        8       43 1
  47        8       44 1
  48       11       45 1
  49       12       46 1
  50       13       47 1
  51       15       48 1
  52       17       49 1
  53       17       50 1
  54       17       51 1
  55       20       52 1
  56       20       53 1
  57       22       54 1
  58       23       55 1
  59       24       56 1
  60       25       57 1
  61       29       58 1
  62       30       59 1
  63       30       60 1
  64       32       61 1
  65       33       62 1
  66       34       63 1

@<TRIPOS>MOLECULE

  63   66
SMALL
USER_CHARGES
@<TRIPOS>ATOM
   1 C1           1.0500     3.4595     1.0000 C.3          1    LIG   0.0000
   2 N2           0.3150     2.1865     1.0000 N.am         1    LIG   0.0000
   3 C3           1.0000     1.0000     1.0000 C.2          1    LIG   0.0000
   4 O4           0.4000    -0.0392     1.0000 O.2          1    LIG   0.0000
   5 C5           2.5200     1.0000     1.0000 C.3          1    LIG   0.0000
   6 N6           3.0100    -0.3859     1.0000 N.3          1    LIG   0.0000
   7 C7           4.4604    -0.4261     0.7791 C.3          1    LIG   0.0000
   8 C8           4.8257    -1.8693     0.4536 C.3          1    LIG   0.0000
   9 C9           4.3707    -2.8275     1.5460 C.ar         1    LIG   0.0000
  10 C10          3.3481    -2.4197     2.3926 C.ar         1    LIG   0.0000
  11 C11          2.8641    -3.2714     3.3774 C.ar         1    LIG   0.0000
  12 C12          3.4363    -4.5324     3.5133 C.ar         1    LIG   0.0000
  13 C13          4.4767    -4.9373     2.6822 C.ar         1    LIG   0.0000
  14 C14          4.9503    -4.0811     1.6942 C.ar         1    LIG   0.0000
  15 N15          5.9958    -4.5231     0.8704 N.pl3        1    LIG   0.0000
  16 S16          5.9045    -5.9824     0.1500 S.o2         1    LIG   0.0000
  17 C17          4.6336    -5.9410    -1.1380 C.3          1    LIG   0.0000
  18 O18          7.1769    -6.3062    -0.4413 O.2          1    LIG   0.0000
  19 O19          5.5626    -6.9808     1.1298 O.2          1    LIG   0.0000
  20 C20          2.7382    -1.0274     2.2916 C.3          1    LIG   0.0000
  21 C21         -1.0855     2.1865     1.0000 C.ar         1    LIG   0.0000
  22 C22         -1.7534     2.1851     2.2205 C.ar         1    LIG   0.0000
  23 C23         -3.1442     2.1860     2.2523 C.ar         1    LIG   0.0000
  24 C24         -3.8674     2.1865     1.0640 C.ar         1    LIG   0.0000
  25 C25         -3.1995     2.1863    -0.1570 C.ar         1    LIG   0.0000
  26 C26         -1.8088     2.1865    -0.1892 C.ar         1    LIG   0.0000
  27 C27         -1.1130     2.1865    -1.4615 C.2          1    LIG   0.0000
  28 O28          0.0867     2.1866    -1.4894 O.2          1    LIG   0.0000
  29 N29         -1.8253     2.1865    -2.6318 N.am         1    LIG   0.0000
  30 C30         -1.1200     2.1866    -3.9216 C.3          1    LIG   0.0000
  31 C31         -0.8770     0.7543    -4.3659 C.2          1    LIG   0.0000
  32 C32         -1.7344     0.0202    -5.1280 C.2          1    LIG   0.0000
  33 C33         -1.1016    -1.2340    -5.2839 C.2          1    LIG   0.0000
  34 C34          0.0781    -1.1618    -4.6068 C.2          1    LIG   0.0000
  35 O35          0.1839     0.0350    -4.0757 O.2          1    LIG   0.0000
  36 H            2.0332     3.2768     1.0000 H            1    LIG   0.0000
  37 H            0.8084     3.9839     0.1835 H            1    LIG   0.0000
  38 H            0.8084     3.9839     1.8165 H            1    LIG   0.0000
  39 H            2.8533     1.4714     0.1835 H            1    LIG   0.0000
  40 H            2.8533     1.4714     1.8165 H            1    LIG   0.0000
  41 H            4.9411    -0.1285     1.6040 H            1    LIG   0.0000
  42 H            4.7075     0.1706     0.0157 H            1    LIG   0.0000
  43 H            4.3874    -2.1280    -0.4072 H            1    LIG   0.0000
  44 H            5.8186    -1.9377     0.3558 H            1    LIG   0.0000
  45 H            2.1180    -2.9835     3.9778 H            1    LIG   0.0000
  46 H            3.0956    -5.1559     4.2170 H            1    LIG   0.0000
  47 H            4.8836    -5.8437     2.7955 H            1    LIG   0.0000
  48 H            6.7972    -3.9429     0.7249 H            1    LIG   0.0000
  49 H            3.7500    -5.7162    -0.7274 H            1    LIG   0.0000
  50 H            4.8710    -5.2477    -1.8184 H            1    LIG   0.0000
  51 H            4.5776    -6.8363    -1.5800 H            1    LIG   0.0000
  52 H            1.7480    -1.1019     2.4104 H            1    LIG   0.0000
  53 H            3.1192    -0.4570     3.0192 H            1    LIG   0.0000
  54 H           -1.2337     2.1835     3.0749 H            1    LIG   0.0000
  55 H           -3.6242     2.1862     3.1296 H            1    LIG   0.0000
  56 H           -4.8671     2.1869     1.0871 H            1    LIG   0.0000
  57 H           -3.7194     2.1860    -1.0112 H            1    LIG   0.0000
  58 H           -2.8250     2.1865    -2.6086 H            1    LIG   0.0000
  59 H           -0.2437     2.6580    -3.8223 H            1    LIG   0.0000
  60 H           -1.6765     2.6580    -4.6057 H            1    LIG   0.0000
  61 H           -2.6189     0.3061    -5.4968 H            1    LIG   0.0000
  62 H           -1.4517    -2.0208    -5.7922 H            1    LIG   0.0000
  63 H            0.7512    -1.8971    -4.5272 H            1    LIG   0.0000
@<TRIPOS>BOND
   1        1        2 1
   2        2        3 am
   3        3        4 2
   4        3        5 1
   5        5        6 1
   6        6        7 1
   7        7        8 1
   8        8        9 1
   9        9       10 ar
  10       10       11 ar
  11       11       12 ar
  12       12       13 ar
  13       13       14 ar
  14       14        9 ar
  15       14       15 1
  16       15       16 1
  17       16       17 1
  18       16       18 2
  19       16       19 2
  20       10       20 1
  21       20        6 1
  22        2       21 1
  23       21       22 ar
  24       22       23 ar
  25       23       24 ar
  26       24       25 ar
  27       25       26 ar
  28       26       21 ar
  29       26       27 1
  30       27       28 2
  31       27       29 am
  32       29       30 1
  33       30       31 1
  34       31       32 2
  35       32       33 1
  36       33       34 2
  37       34       35 1
  38       35       31 1
  39        1       36 1
  40        1       37 1
  41        1       38 1
  42        5       39 1
  43        5       40 1
  44        7       41 1
  45        7       42 1
  46        8       43 1
  47        8       44 1
  48       11       45 1
  49       12       46 1
  50       13       47 1
  51       15       48 1
  52       17       49 1
  53       17       50 1
  54       17       51 1
  55       20       52 1
  56       20       53 1
  57       22       54 1
  58       23       55 1
  59       24       56 1
  60       25       57 1
  61       29       58 1
  62       30       59 1
  63       30       60 1
  64       32       61 1
  65       33       62 1
  66       34       63 1

@<TRIPOS>MOLECULE

  63   66
SMALL
USER_CHARGES
@<TRIPOS>ATOM
   1 C1           1.0500     3.4595     1.0000 C.3          1    LIG   0.0000
   2 N2           0.3150     2.1865     1.0000 N.am         1    LIG   0.0000
   3 C3           1.0000     1.0000     1.0000 C.2          1    LIG   0.0000
   4 O4           0.4000    -0.0392     1.0000 O.2          1    LIG   0.0000
   5 C5           2.5200     1.0000     1.0000 C.3          1    LIG   0.0000
   6 N6           3.0100    -0.3859     1.0000 N.3          1    LIG   0.0000
   7 C7           4.4604    -0.4261     0.7791 C.3          1    LIG   0.0000
   8 C8           4.8257    -1.8693     0.4536 C.3          1    LIG   0.0000
   9 C9           4.3707    -2.8275     1.5460 C.ar         1    LIG   0.0000
  10 C10          3.3481    -2.4197     2.3926 C.ar         1    LIG   0.0000
  11 C11          2.8641    -3.2714     3.3774 C.ar         1    LIG   0.0000
  12 C12          3.4363    -4.5324     3.5133 C.ar         1    LIG   0.0000
  13 C13          4.4767    -4.9373     2.6822 C.ar         1    LIG   0.0000
  14 C14          4.9503    -4.0811     1.6942 C.ar         1    LIG   0.0000
  15 N15          5.9958    -4.5231     0.8704 N.pl3        1    LIG   0.0000
  16 S16          5.9045    -5.9824     0.1500 S.o2         1    LIG   0.0000
  17 C17          4.6336    -5.9410    -1.1380 C.3          1    LIG   0.0000
  18 O18          7.1769    -6.3062    -0.4413 O.2          1    LIG   0.0000
  19 O19          5.5626    -6.9808     1.1298 O.2          1    LIG   0.0000
  20 C20          2.7382    -1.0274     2.2916 C.3          1    LIG   0.0000
  21 C21         -1.0855     2.1865     1.0000 C.ar         1    LIG   0.0000
  22 C22         -1.7534     2.1851     2.2205 C.ar         1    LIG   0.0000
  23 C23         -3.1442     2.1860     2.2523 C.ar         1    LIG   0.0000
  24 C24         -3.8674     2.1865     1.0640 C.ar         1    LIG   0.0000
  25 C25         -3.1995     2.1863    -0.1570 C.ar         1    LIG   0.0000
  26 C26         -1.8088     2.1865    -0.1892 C.ar         1    LIG   0.0000
  27 C27         -1.1130     2.1865    -1.4615 C.2          1    LIG   0.0000
  28 O28          0.0867     2.1866    -1.4894 O.2          1    LIG   0.0000
  29 N29         -1.8253     2.1865    -2.6318 N.am         1    LIG   0.0000
  30 C30         -1.1200     2.1866    -3.9216 C.3          1    LIG   0.0000
  31 C31         -0.8771     3.6190    -4.3658 C.2          1    LIG   0.0000
  32 C32          0.2271     4.3531    -4.0551 C.2          1    LIG   0.0000
  33 C33          0.0169     5.6073    -4.6719 C.2          1    LIG   0.0000
  34 C34         -1.1898     5.5351    -5.2997 C.2          1    LIG   0.0000
  35 O35         -1.6940     4.3383    -5.1023 O.2          1    LIG   0.0000
  36 H            2.0332     3.2768     1.0000 H            1    LIG   0.0000
  37 H            0.8084     3.9839     0.1835 H            1    LIG   0.0000
  38 H            0.8084     3.9839     1.8165 H            1    LIG   0.0000
  39 H            2.8533     1.4714     0.1835 H            1    LIG   0.0000
  40 H            2.8533     1.4714     1.8165 H            1    LIG   0.0000
  41 H            4.9411    -0.1285     1.6040 H            1    LIG   0.0000
  42 H            4.7075     0.1706     0.0157 H            1    LIG   0.0000
  43 H            4.3874    -2.1280    -0.4072 H            1    LIG   0.0000
  44 H            5.8186    -1.9377     0.3558 H            1    LIG   0.0000
  45 H            2.1180    -2.9835     3.9778 H            1    LIG   0.0000
  46 H            3.0956    -5.1559     4.2170 H            1    LIG   0.0000
  47 H            4.8836    -5.8437     2.7955 H            1    LIG   0.0000
  48 H            6.7972    -3.9429     0.7249 H            1    LIG   0.0000
  49 H            3.7500    -5.7162    -0.7274 H            1    LIG   0.0000
  50 H            4.8710    -5.2477    -1.8184 H            1    LIG   0.0000
  51 H            4.5776    -6.8363    -1.5800 H            1    LIG   0.0000
  52 H            1.7480    -1.1019     2.4104 H            1    LIG   0.0000
  53 H            3.1192    -0.4570     3.0192 H            1    LIG   0.0000
  54 H           -1.2337     2.1835     3.0749 H            1    LIG   0.0000
  55 H           -3.6242     2.1862     3.1296 H            1    LIG   0.0000
  56 H           -4.8671     2.1869     1.0871 H            1    LIG   0.0000
  57 H           -3.7194     2.1860    -1.0112 H            1    LIG   0.0000
  58 H           -2.8250     2.1865    -2.6086 H            1    LIG   0.0000
  59 H           -1.6765     1.7152    -4.6058 H            1    LIG   0.0000
  60 H           -0.2437     1.7152    -3.8223 H            1    LIG   0.0000
  61 H            1.0149     4.0671    -3.5095 H            1    LIG   0.0000
  62 H            0.6336     6.3942    -4.6514 H            1    LIG   0.0000
  63 H           -1.6200     6.2704    -5.8235 H            1    LIG   0.0000
@<TRIPOS>BOND
   1        1        2 1
   2        2        3 am
   3        3        4 2
   4        3        5 1
   5        5        6 1
   6        6        7 1
   7        7        8 1
   8        8        9 1
   9        9       10 ar
  10       10       11 ar
  11       11       12 ar
  12       12       13 ar
  13       13       14 ar
  14       14        9 ar
  15       14       15 1
  16       15       16 1
  17       16       17 1
  18       16       18 2
  19       16       19 2
  20       10       20 1
  21       20        6 1
  22        2       21 1
  23       21       22 ar
  24       22       23 ar
  25       23       24 ar
  26       24       25 ar
  27       25       26 ar
  28       26       21 ar
  29       26       27 1
  30       27       28 2
  31       27       29 am
  32       29       30 1
  33       30       31 1
  34       31       32 2
  35       32       33 1
  36       33       34 2
  37       34       35 1
  38       35       31 1
  39        1       36 1
  40        1       37 1
  41        1       38 1
  42        5       39 1
  43        5       40 1
  44        7       41 1
  45        7       42 1
  46        8       43 1
  47        8       44 1
  48       11       45 1
  49       12       46 1
  50       13       47 1
  51       15       48 1
  52       17       49 1
  53       17       50 1
  54       17       51 1
  55       20       52 1
  56       20       53 1
  57       22       54 1
  58       23       55 1
  59       24       56 1
  60       25       57 1
  61       29       58 1
  62       30       59 1
  63       30       60 1
  64       32       61 1
  65       33       62 1
  66       34       63 1

@<TRIPOS>MOLECULE

  63   66
SMALL
USER_CHARGES
@<TRIPOS>ATOM
   1 C1           1.0500     3.4595     1.0000 C.3          1    LIG   0.0000
   2 N2           0.3150     2.1865     1.0000 N.am         1    LIG   0.0000
   3 C3           1.0000     1.0000     1.0000 C.2          1    LIG   0.0000
   4 O4           0.4000    -0.0392     1.0000 O.2          1    LIG   0.0000
   5 C5           2.5200     1.0000     1.0000 C.3          1    LIG   0.0000
   6 N6           3.0100    -0.3859     1.0000 N.3          1    LIG   0.0000
   7 C7           4.4604    -0.4261     0.7791 C.3          1    LIG   0.0000
   8 C8           4.8257    -1.8693     0.4536 C.3          1    LIG   0.0000
   9 C9           4.3707    -2.8275     1.5460 C.ar         1    LIG   0.0000
  10 C10          3.3481    -2.4197     2.3926 C.ar         1    LIG   0.0000
  11 C11          2.8641    -3.2714     3.3774 C.ar         1    LIG   0.0000
  12 C12          3.4363    -4.5324     3.5133 C.ar         1    LIG   0.0000
  13 C13          4.4767    -4.9373     2.6822 C.ar         1    LIG   0.0000
  14 C14          4.9503    -4.0811     1.6942 C.ar         1    LIG   0.0000
  15 N15          5.9958    -4.5231     0.8704 N.pl3        1    LIG   0.0000
  16 S16          5.9045    -5.9824     0.1500 S.o2         1    LIG   0.0000
  17 C17          4.6336    -5.9410    -1.1380 C.3          1    LIG   0.0000
  18 O18          7.1769    -6.3062    -0.4413 O.2          1    LIG   0.0000
  19 O19          5.5626    -6.9808     1.1298 O.2          1    LIG   0.0000
  20 C20          2.7382    -1.0274     2.2916 C.3          1    LIG   0.0000
  21 C21         -1.0855     2.1865     1.0000 C.ar         1    LIG   0.0000
  22 C22         -1.7534     2.1878    -0.2205 C.ar         1    LIG   0.0000
  23 C23         -3.1442     2.1869    -0.2523 C.ar         1    LIG   0.0000
  24 C24         -3.8674     2.1864     0.9360 C.ar         1    LIG   0.0000
  25 C25         -3.1995     2.1866     2.1570 C.ar         1    LIG   0.0000
  26 C26         -1.8088     2.1865     2.1892 C.ar         1    LIG   0.0000
  27 C27         -1.1130     2.1864     3.4615 C.2          1    LIG   0.0000
  28 O28          0.0867     2.1863     3.4894 O.2          1    LIG   0.0000
  29 N29         -1.8253     2.1864     4.6318 N.am         1    LIG   0.0000
  30 C30         -1.1200     2.1863     5.9216 C.3          1    LIG   0.0000
  31 C31         -0.8770     3.6186     6.3659 C.2          1    LIG   0.0000
  32 C32         -1.7344     4.3527     7.1280 C.2          1    LIG   0.0000
  33 C33         -1.1016     5.6069     7.2839 C.2          1    LIG   0.0000
  34 C34          0.0781     5.5347     6.6068 C.2          1    LIG   0.0000
  35 O35          0.1839     4.3379     6.0757 O.2          1    LIG   0.0000
  36 H            2.0332     3.2768     1.0000 H            1    LIG   0.0000
  37 H            0.8084     3.9839     0.1835 H            1    LIG   0.0000
  38 H            0.8084     3.9839     1.8165 H            1    LIG   0.0000
  39 H            2.8533     1.4714     0.1835 H            1    LIG   0.0000
  40 H            2.8533     1.4714     1.8165 H            1    LIG   0.0000
  41 H            4.9411    -0.1285     1.6040 H            1    LIG   0.0000
  42 H            4.7075     0.1706     0.0157 H            1    LIG   0.0000
  43 H            4.3874    -2.1280    -0.4072 H            1    LIG   0.0000
  44 H            5.8186    -1.9377     0.3558 H            1    LIG   0.0000
  45 H            2.1180    -2.9835     3.9778 H            1    LIG   0.0000
  46 H            3.0956    -5.1559     4.2170 H            1    LIG   0.0000
  47 H            4.8836    -5.8437     2.7955 H            1    LIG   0.0000
  48 H            6.7972    -3.9429     0.7249 H            1    LIG   0.0000
  49 H            3.7500    -5.7162    -0.7274 H            1    LIG   0.0000
  50 H            4.8710    -5.2477    -1.8184 H            1    LIG   0.0000
  51 H            4.5776    -6.8363    -1.5800 H            1    LIG   0.0000
  52 H            1.7480    -1.1019     2.4104 H            1    LIG   0.0000
  53 H            3.1192    -0.4570     3.0192 H            1    LIG   0.0000
  54 H           -1.2337     2.1894    -1.0749 H            1    LIG   0.0000
  55 H           -3.6242     2.1867    -1.1296 H            1    LIG   0.0000
  56 H           -4.8671     2.1860     0.9129 H            1    LIG   0.0000
  57 H           -3.7194     2.1869     3.0112 H            1    LIG   0.0000
  58 H           -2.8250     2.1864     4.6086 H            1    LIG   0.0000
  59 H           -0.2437     1.7149     5.8223 H            1    LIG   0.0000
  60 H           -1.6765     1.7149     6.6057 H            1    LIG   0.0000
  61 H           -2.6189     4.0668     7.4968 H            1    LIG   0.0000
  62 H           -1.4517     6.3938     7.7922 H            1    LIG   0.0000
  63 H            0.7512     6.2700     6.5272 H            1    LIG   0.0000
@<TRIPOS>BOND
   1        1        2 1
   2        2        3 am
   3        3        4 2
   4        3        5 1
   5        5        6 1
   6        6        7 1
   7        7        8 1
   8        8        9 1
   9        9       10 ar
  10       10       11 ar
  11       11       12 ar
  12       12       13 ar
  13       13       14 ar
  14       14        9 ar
  15       14       15 1
  16       15       16 1
  17       16       17 1
  18       16       18 2
  19       16       19 2
  20       10       20 1
  21       20        6 1
  22        2       21 1
  23       21       22 ar
  24       22       23 ar
  25       23       24 ar
  26       24       25 ar
  27       25       26 ar
  28       26       21 ar
  29       26       27 1
  30       27       28 2
  31       27       29 am
  32       29       30 1
  33       30       31 1
  34       31       32 2
  35       32       33 1
  36       33       34 2
  37       34       35 1
  38       35       31 1
  39        1       36 1
  40        1       37 1
  41        1       38 1
  42        5       39 1
  43        5       40 1
  44        7       41 1
  45        7       42 1
  46        8       43 1
  47        8       44 1
  48       11       45 1
  49       12       46 1
  50       13       47 1
  51       15       48 1
  52       17       49 1
  53       17       50 1
  54       17       51 1
  55       20       52 1
  56       20       53 1
  57       22       54 1
  58       23       55 1
  59       24       56 1
  60       25       57 1
  61       29       58 1
  62       30       59 1
  63       30       60 1
  64       32       61 1
  65       33       62 1
  66       34       63 1

@<TRIPOS>MOLECULE

  63   66
SMALL
USER_CHARGES
@<TRIPOS>ATOM
   1 C1           1.0500     3.4595     1.0000 C.3          1    LIG   0.0000
   2 N2           0.3150     2.1865     1.0000 N.am         1    LIG   0.0000
   3 C3           1.0000     1.0000     1.0000 C.2          1    LIG   0.0000
   4 O4           0.4000    -0.0392     1.0000 O.2          1    LIG   0.0000
   5 C5           2.5200     1.0000     1.0000 C.3          1    LIG   0.0000
   6 N6           3.0100    -0.3859     1.0000 N.3          1    LIG   0.0000
   7 C7           4.4604    -0.4261     0.7791 C.3          1    LIG   0.0000
   8 C8           4.8257    -1.8693     0.4536 C.3          1    LIG   0.0000
   9 C9           4.3707    -2.8275     1.5460 C.ar         1    LIG   0.0000
  10 C10          3.3481    -2.4197     2.3926 C.ar         1    LIG   0.0000
  11 C11          2.8641    -3.2714     3.3774 C.ar         1    LIG   0.0000
  12 C12          3.4363    -4.5324     3.5133 C.ar         1    LIG   0.0000
  13 C13          4.4767    -4.9373     2.6822 C.ar         1    LIG   0.0000
  14 C14          4.9503    -4.0811     1.6942 C.ar         1    LIG   0.0000
  15 N15          5.9958    -4.5231     0.8704 N.pl3        1    LIG   0.0000
  16 S16          5.9045    -5.9824     0.1500 S.o2         1    LIG   0.0000
  17 C17          4.6336    -5.9410    -1.1380 C.3          1    LIG   0.0000
  18 O18          7.1769    -6.3062    -0.4413 O.2          1    LIG   0.0000
  19 O19          5.5626    -6.9808     1.1298 O.2          1    LIG   0.0000
  20 C20          2.7382    -1.0274     2.2916 C.3          1    LIG   0.0000
  21 C21         -1.0855     2.1865     1.0000 C.ar         1    LIG   0.0000
  22 C22         -1.7534     2.1878    -0.2205 C.ar         1    LIG   0.0000
  23 C23         -3.1442     2.1869    -0.2523 C.ar         1    LIG   0.0000
  24 C24         -3.8674     2.1864     0.9360 C.ar         1    LIG   0.0000
  25 C25         -3.1995     2.1866     2.1570 C.ar         1    LIG   0.0000
  26 C26         -1.8088     2.1865     2.1892 C.ar         1    LIG   0.0000
  27 C27         -1.1130     2.1864     3.4615 C.2          1    LIG   0.0000
  28 O28          0.0867     2.1863     3.4894 O.2          1    LIG   0.0000
  29 N29         -1.8253     2.1864     4.6318 N.am         1    LIG   0.0000
  30 C30         -1.1200     2.1863     5.9216 C.3          1    LIG   0.0000
  31 C31         -0.8771     0.7540     6.3658 C.2          1    LIG   0.0000
  32 C32          0.2271     0.0198     6.0551 C.2          1    LIG   0.0000
  33 C33          0.0169    -1.2344     6.6719 C.2          1    LIG   0.0000
  34 C34         -1.1898    -1.1622     7.2997 C.2          1    LIG   0.0000
  35 O35         -1.6940     0.0346     7.1023 O.2          1    LIG   0.0000
  36 H            2.0332     3.2768     1.0000 H            1    LIG   0.0000
  37 H            0.8084     3.9839     0.1835 H            1    LIG   0.0000
  38 H            0.8084     3.9839     1.8165 H            1    LIG   0.0000
  39 H            2.8533     1.4714     0.1835 H            1    LIG   0.0000
  40 H            2.8533     1.4714     1.8165 H            1    LIG   0.0000
  41 H            4.9411    -0.1285     1.6040 H            1    LIG   0.0000
  42 H            4.7075     0.1706     0.0157 H            1    LIG   0.0000
  43 H            4.3874    -2.1280    -0.4072 H            1    LIG   0.0000
  44 H            5.8186    -1.9377     0.3558 H            1    LIG   0.0000
  45 H            2.1180    -2.9835     3.9778 H            1    LIG   0.0000
  46 H            3.0956    -5.1559     4.2170 H            1    LIG   0.0000
  47 H            4.8836    -5.8437     2.7955 H            1    LIG   0.0000
  48 H            6.7972    -3.9429     0.7249 H            1    LIG   0.0000
  49 H            3.7500    -5.7162    -0.7274 H            1    LIG   0.0000
  50 H            4.8710    -5.2477    -1.8184 H            1    LIG   0.0000
  51 H            4.5776    -6.8363    -1.5800 H            1    LIG   0.0000
  52 H            1.7480    -1.1019     2.4104 H            1    LIG   0.0000
  53 H            3.1192    -0.4570     3.0192 H            1    LIG   0.0000
  54 H           -1.2337     2.1894    -1.0749 H            1    LIG   0.0000
  55 H           -3.6242     2.1867    -1.1296 H            1    LIG   0.0000
  56 H           -4.8671     2.1860     0.9129 H            1    LIG   0.0000
  57 H           -3.7194     2.1869     3.0112 H            1    LIG   0.0000
  58 H           -2.8250     2.1864     4.6086 H            1    LIG   0.0000
  59 H           -1.6765     2.6577     6.6058 H            1    LIG   0.0000
  60 H           -0.2437     2.6577     5.8223 H            1    LIG   0.0000
  61 H            1.0149     0.3058     5.5095 H            1    LIG   0.0000
  62 H            0.6336    -2.0213     6.6514 H            1    LIG   0.0000
  63 H           -1.6200    -1.8975     7.8235 H            1    LIG   0.0000
@<TRIPOS>BOND
   1        1        2 1
   2        2        3 am
   3        3        4 2
   4        3        5 1
   5        5        6 1
   6        6        7 1
   7        7        8 1
   8        8        9 1
   9        9       10 ar
  10       10       11 ar
  11       11       12 ar
  12       12       13 ar
  13       13       14 ar
  14       14        9 ar
  15       14       15 1
  16       15       16 1
  17       16       17 1
  18       16       18 2
  19       16       19 2
  20       10       20 1
  21       20        6 1
  22        2       21 1
  23       21       22 ar
  24       22       23 ar
  25       23       24 ar
  26       24       25 ar
  27       25       26 ar
  28       26       21 ar
  29       26       27 1
  30       27       28 2
  31       27       29 am
  32       29       30 1
  33       30       31 1
  34       31       32 2
  35       32       33 1
  36       33       34 2
  37       34       35 1
  38       35       31 1
  39        1       36 1
  40        1       37 1
  41        1       38 1
  42        5       39 1
  43        5       40 1
  44        7       41 1
  45        7       42 1
  46        8       43 1
  47        8       44 1
  48       11       45 1
  49       12       46 1
  50       13       47 1
  51       15       48 1
  52       17       49 1
  53       17       50 1
  54       17       51 1
  55       20       52 1
  56       20       53 1
  57       22       54 1
  58       23       55 1
  59       24       56 1
  60       25       57 1
  61       29       58 1
  62       30       59 1
  63       30       60 1
  64       32       61 1
  65       33       62 1
  66       34       63 1

@<TRIPOS>MOLECULE

  63   66
SMALL
USER_CHARGES
@<TRIPOS>ATOM
   1 C1           1.0500     3.4595     1.0000 C.3          1    LIG   0.0000
   2 N2           0.3150     2.1865     1.0000 N.am         1    LIG   0.0000
   3 C3           1.0000     1.0000     1.0000 C.2          1    LIG   0.0000
   4 O4           0.4000    -0.0392     1.0000 O.2          1    LIG   0.0000
   5 C5           2.5200     1.0000     1.0000 C.3          1    LIG   0.0000
   6 N6           3.0098    -0.3855     1.0000 N.3          1    LIG   0.0000
   7 C7           2.8296    -0.9824     2.3368 C.3          1    LIG   0.0000
   8 C8           3.1714    -2.4602     2.2796 C.3          1    LIG   0.0000
   9 C9           4.5031    -2.7431     1.5786 C.ar         1    LIG   0.0000
  10 C10          5.0688    -1.7905     0.7273 C.ar         1    LIG   0.0000
  11 C11          6.2650    -2.0937     0.0810 C.ar         1    LIG   0.0000
  12 C12          6.8950    -3.3170     0.2807 C.ar         1    LIG   0.0000
  13 C13          6.3239    -4.2547     1.1351 C.ar         1    LIG   0.0000
  14 C14          5.1296    -3.9645     1.7843 C.ar         1    LIG   0.0000
  15 N15          4.5833    -4.9361     2.6312 N.pl3        1    LIG   0.0000
  16 S16          4.4188    -6.4718     2.1104 S.o2         1    LIG   0.0000
  17 C17          3.1208    -6.5461     0.8511 C.3          1    LIG   0.0000
  18 O18          5.6636    -6.9225     1.5438 O.2          1    LIG   0.0000
  19 O19          4.0613    -7.3188     3.2187 O.2          1    LIG   0.0000
  20 C20          4.3946    -0.4376     0.5311 C.3          1    LIG   0.0000
  21 C21         -1.0855     2.1865     1.0000 C.ar         1    LIG   0.0000
  22 C22         -1.7534     2.1851     2.2205 C.ar         1    LIG   0.0000
  23 C23         -3.1442     2.1860     2.2523 C.ar         1    LIG   0.0000
  24 C24         -3.8674     2.1865     1.0640 C.ar         1    LIG   0.0000
  25 C25         -3.1995     2.1863    -0.1570 C.ar         1    LIG   0.0000
  26 C26         -1.8088     2.1865    -0.1892 C.ar         1    LIG   0.0000
  27 C27         -1.1130     2.1865    -1.4615 C.2          1    LIG   0.0000
  28 O28          0.0867     2.1866    -1.4894 O.2          1    LIG   0.0000
  29 N29         -1.8253     2.1865    -2.6318 N.am         1    LIG   0.0000
  30 C30         -1.1200     2.1866    -3.9216 C.3          1    LIG   0.0000
  31 C31         -0.8770     0.7543    -4.3659 C.2          1    LIG   0.0000
  32 C32          0.2293     0.0217    -4.0589 C.2          1    LIG   0.0000
  33 C33          0.0218    -1.2306    -4.6805 C.2          1    LIG   0.0000
  34 C34         -1.1827    -1.1568    -5.3124 C.2          1    LIG   0.0000
  35 O35         -1.6937     0.0349    -5.1024 O.2          1    LIG   0.0000
  36 H            2.0332     3.2768     1.0000 H            1    LIG   0.0000
  37 H            0.8084     3.9839     0.1835 H            1    LIG   0.0000
  38 H            0.8084     3.9839     1.8165 H            1    LIG   0.0000
  39 H            2.8533     1.4714     0.1835 H            1    LIG   0.0000
  40 H            2.8533     1.4714     1.8165 H            1    LIG   0.0000
  41 H            1.8790    -0.8709     2.6266 H            1    LIG   0.0000
  42 H            3.4331    -0.5255     2.9903 H            1    LIG   0.0000
  43 H            3.2233    -2.8111     3.2146 H            1    LIG   0.0000
  44 H            2.4442    -2.9360     1.7849 H            1    LIG   0.0000
  45 H            6.6764    -1.4221    -0.5352 H            1    LIG   0.0000
  46 H            7.7545    -3.5219    -0.1876 H            1    LIG   0.0000
  47 H            6.7722    -5.1364     1.2820 H            1    LIG   0.0000
  48 H            4.2940    -4.6879     3.5557 H            1    LIG   0.0000
  49 H            2.2564    -6.2331     1.2445 H            1    LIG   0.0000
  50 H            3.3691    -5.9579     0.0814 H            1    LIG   0.0000
  51 H            3.0199    -7.4883     0.5316 H            1    LIG   0.0000
  52 H            4.9211     0.2507     1.0302 H            1    LIG   0.0000
  53 H            4.4038    -0.2210    -0.4451 H            1    LIG   0.0000
  54 H           -1.2337     2.1835     3.0749 H            1    LIG   0.0000
  55 H           -3.6242     2.1862     3.1296 H            1    LIG   0.0000
  56 H           -4.8671     2.1869     1.0871 H            1    LIG   0.0000
  57 H           -3.7194     2.1860    -1.0112 H            1    LIG   0.0000
  58 H           -2.8250     2.1865    -2.6086 H            1    LIG   0.0000
  59 H           -0.2437     2.6580    -3.8223 H            1    LIG   0.0000
  60 H           -1.6765     2.6580    -4.6057 H            1    LIG   0.0000
  61 H            1.0167     0.3075    -3.5127 H            1    LIG   0.0000
  62 H            0.6389    -2.0172    -4.6604 H            1    LIG   0.0000
  63 H           -1.6070    -1.8879    -5.8468 H            1    LIG   0.0000
@<TRIPOS>BOND
   1        1        2 1
   2        2        3 am
   3        3        4 2
   4        3        5 1
   5        5        6 1
   6        6        7 1
   7        7        8 1
   8        8        9 1
   9        9       10 ar
  10       10       11 ar
  11       11       12 ar
  12       12       13 ar
  13       13       14 ar
  14       14        9 ar
  15       14       15 1
  16       15       16 1
  17       16       17 1
  18       16       18 2
  19       16       19 2
  20       10       20 1
  21       20        6 1
  22        2       21 1
  23       21       22 ar
  24       22       23 ar
  25       23       24 ar
  26       24       25 ar
  27       25       26 ar
  28       26       21 ar
  29       26       27 1
  30       27       28 2
  31       27       29 am
  32       29       30 1
  33       30       31 1
  34       31       32 2
  35       32       33 1
  36       33       34 2
  37       34       35 1
  38       35       31 1
  39        1       36 1
  40        1       37 1
  41        1       38 1
  42        5       39 1
  43        5       40 1
  44        7       41 1
  45        7       42 1
  46        8       43 1
  47        8       44 1
  48       11       45 1
  49       12       46 1
  50       13       47 1
  51       15       48 1
  52       17       49 1
  53       17       50 1
  54       17       51 1
  55       20       52 1
  56       20       53 1
  57       22       54 1
  58       23       55 1
  59       24       56 1
  60       25       57 1
  61       29       58 1
  62       30       59 1
  63       30       60 1
  64       32       61 1
  65       33       62 1
  66       34       63 1

@<TRIPOS>MOLECULE

  63   66
SMALL
USER_CHARGES
@<TRIPOS>ATOM
   1 C1          -1.1550     2.1865     1.0000 C.3          1    LIG   0.0000
   2 N2           0.3150     2.1865     1.0000 N.am         1    LIG   0.0000
   3 C3           1.0000     1.0000     1.0000 C.2          1    LIG   0.0000
   4 O4           0.4000    -0.0392     1.0000 O.2          1    LIG   0.0000
   5 C5           2.5200     1.0000     1.0000 C.3          1    LIG   0.0000
   6 N6           3.0108    -0.3882     1.0000 N.3          1    LIG   0.0000
   7 C7           2.3776    -1.0969    -0.1288 C.3          1    LIG   0.0000
   8 C8           1.6938    -2.4010     0.2400 C.3          1    LIG   0.0000
   9 C9           2.6259    -3.1569     1.1601 C.ar         1    LIG   0.0000
  10 C10          3.1394    -2.4308     2.2225 C.ar         1    LIG   0.0000
  11 C11          4.0196    -3.0635     3.0990 C.ar         1    LIG   0.0000
  12 C12          4.3860    -4.3935     2.9143 C.ar         1    LIG   0.0000
  13 C13          3.8584    -5.0988     1.8386 C.ar         1    LIG   0.0000
  14 C14          2.9727    -4.4843     0.9600 C.ar         1    LIG   0.0000
  15 N15          2.4526    -5.2252    -0.1085 N.pl3        1    LIG   0.0000
  16 S16          1.7931    -6.6913     0.1609 S.o2         1    LIG   0.0000
  17 C17          0.2302    -6.4952     1.0526 C.3          1    LIG   0.0000
  18 O18          1.5485    -7.3463    -1.0980 O.2          1    LIG   0.0000
  19 O19          2.6984    -7.4875     0.9483 O.2          1    LIG   0.0000
  20 C20          2.7094    -0.9781     2.3209 C.3          1    LIG   0.0000
  21 C21          1.0152     3.3993     1.0000 C.ar         1    LIG   0.0000
  22 C22          1.3480     3.9784     2.2205 C.ar         1    LIG   0.0000
  23 C23          2.0442     5.1825     2.2523 C.ar         1    LIG   0.0000
  24 C24          2.4062     5.8085     1.0640 C.ar         1    LIG   0.0000
  25 C25          2.0721     5.2302    -0.1570 C.ar         1    LIG   0.0000
  26 C26          1.3769     4.0257    -0.1892 C.ar         1    LIG   0.0000
  27 C27          1.0291     3.4231    -1.4615 C.2          1    LIG   0.0000
  28 O28          0.4293     2.3841    -1.4894 O.2          1    LIG   0.0000
  29 N29          1.3852     4.0400    -2.6318 N.am         1    LIG   0.0000
  30 C30          1.0326     3.4292    -3.9216 C.3          1    LIG   0.0000
  31 C31          1.5395     4.3071    -5.0531 C.2          1    LIG   0.0000
  32 C32          2.7680     4.1991    -5.6309 C.2          1    LIG   0.0000
  33 C33          2.7966     5.2093    -6.6191 C.2          1    LIG   0.0000
  34 C34          1.5939     5.8461    -6.5599 C.2          1    LIG   0.0000
  35 O35          0.8674     5.2829    -5.6214 O.2          1    LIG   0.0000
  36 H           -1.4883     1.2436     1.0000 H            1    LIG   0.0000
  37 H           -1.4883     2.6579     1.8165 H            1    LIG   0.0000
  38 H           -1.4883     2.6579     0.1835 H            1    LIG   0.0000
  39 H            2.8533     1.4714     0.1835 H            1    LIG   0.0000
  40 H            2.8533     1.4714     1.8165 H            1    LIG   0.0000
  41 H            3.0853    -1.2976    -0.8062 H            1    LIG   0.0000
  42 H            1.6927    -0.4900    -0.5321 H            1    LIG   0.0000
  43 H            0.8300    -2.2136     0.7076 H            1    LIG   0.0000
  44 H            1.5168    -2.9390    -0.5842 H            1    LIG   0.0000
  45 H            4.3940    -2.5534     3.8733 H            1    LIG   0.0000
  46 H            5.0209    -4.8363     3.5474 H            1    LIG   0.0000
  47 H            4.1175    -6.0540     1.6957 H            1    LIG   0.0000
  48 H            2.4859    -4.8549    -1.0368 H            1    LIG   0.0000
  49 H            0.4001    -6.0403     1.9268 H            1    LIG   0.0000
  50 H           -0.3984    -5.9422     0.5058 H            1    LIG   0.0000
  51 H           -0.1744    -7.3946     1.2179 H            1    LIG   0.0000
  52 H            1.7308    -0.9156     2.5167 H            1    LIG   0.0000
  53 H            3.2237    -0.5090     3.0389 H            1    LIG   0.0000
  54 H            1.0868     3.5292     3.0749 H            1    LIG   0.0000
  55 H            2.2844     5.5980     3.1296 H            1    LIG   0.0000
  56 H            2.9065     6.6741     1.0871 H            1    LIG   0.0000
  57 H            2.3318     5.6806    -1.0112 H            1    LIG   0.0000
  58 H            1.8850     4.9058    -2.6086 H            1    LIG   0.0000
  59 H            0.0388     3.3407    -3.9879 H            1    LIG   0.0000
  60 H            1.4530     2.5242    -3.9878 H            1    LIG   0.0000
  61 H            3.4920     3.5472    -5.4053 H            1    LIG   0.0000
  62 H            3.5523     5.4162    -7.2404 H            1    LIG   0.0000
  63 H            1.3112     6.6139    -7.1347 H            1    LIG   0.0000
@<TRIPOS>BOND
   1        1        2 1
   2        2        3 am
   3        3        4 2
   4        3        5 1
   5        5        6 1
   6        6        7 1
   7        7        8 1
   8        8        9 1
   9        9       10 ar
  10       10       11 ar
  11       11       12 ar
  12       12       13 ar
  13       13       14 ar
  14       14        9 ar
  15       14       15 1
  16       15       16 1
  17       16       17 1
  18       16       18 2
  19       16       19 2
  20       10       20 1
  21       20        6 1
  22        2       21 1
  23       21       22 ar
  24       22       23 ar
  25       23       24 ar
  26       24       25 ar
  27       25       26 ar
  28       26       21 ar
  29       26       27 1
  30       27       28 2
  31       27       29 am
  32       29       30 1
  33       30       31 1
  34       31       32 2
  35       32       33 1
  36       33       34 2
  37       34       35 1
  38       35       31 1
  39        1       36 1
  40        1       37 1
  41        1       38 1
  42        5       39 1
  43        5       40 1
  44        7       41 1
  45        7       42 1
  46        8       43 1
  47        8       44 1
  48       11       45 1
  49       12       46 1
  50       13       47 1
  51       15       48 1
  52       17       49 1
  53       17       50 1
  54       17       51 1
  55       20       52 1
  56       20       53 1
  57       22       54 1
  58       23       55 1
  59       24       56 1
  60       25       57 1
  61       29       58 1
  62       30       59 1
  63       30       60 1
  64       32       61 1
  65       33       62 1
  66       34       63 1

@<TRIPOS>MOLECULE

  63   66
SMALL
USER_CHARGES
@<TRIPOS>ATOM
   1 C1          -1.1550     2.1865     1.0000 C.3          1    LIG   0.0000
   2 N2           0.3150     2.1865     1.0000 N.am         1    LIG   0.0000
   3 C3           1.0000     1.0000     1.0000 C.2          1    LIG   0.0000
   4 O4           0.4000    -0.0392     1.0000 O.2          1    LIG   0.0000
   5 C5           2.5200     1.0000     1.0000 C.3          1    LIG   0.0000
   6 N6           3.0108    -0.3882     1.0000 N.3          1    LIG   0.0000
   7 C7           4.4490    -0.3645     1.3291 C.3          1    LIG   0.0000
   8 C8           5.3390    -1.1122     0.3528 C.3          1    LIG   0.0000
   9 C9           4.6698    -2.4343     0.0509 C.ar         1    LIG   0.0000
  10 C10          3.3303    -2.3633    -0.2962 C.ar         1    LIG   0.0000
  11 C11          2.6488    -3.5482    -0.5698 C.ar         1    LIG   0.0000
  12 C12          3.2901    -4.7810    -0.4912 C.ar         1    LIG   0.0000
  13 C13          4.6341    -4.8246    -0.1380 C.ar         1    LIG   0.0000
  14 C14          5.3302    -3.6508     0.1299 C.ar         1    LIG   0.0000
  15 N15          6.6853    -3.7287     0.4745 N.pl3        1    LIG   0.0000
  16 S16          7.7115    -4.5988    -0.4457 S.o2         1    LIG   0.0000
  17 C17          7.9528    -3.7648    -2.0339 C.3          1    LIG   0.0000
  18 O18          8.9773    -4.7198     0.2301 O.2          1    LIG   0.0000
  19 O19          7.1604    -5.9100    -0.6709 O.2          1    LIG   0.0000
  20 C20          2.7094    -0.9781    -0.3209 C.3          1    LIG   0.0000
  21 C21          1.0152     3.3993     1.0000 C.ar         1    LIG   0.0000
  22 C22          1.3504     3.9771    -0.2205 C.ar         1    LIG   0.0000
  23 C23          2.0450     5.1820    -0.2523 C.ar         1    LIG   0.0000
  24 C24          2.4062     5.8085     0.9360 C.ar         1    LIG   0.0000
  25 C25          2.0724     5.2300     2.1570 C.ar         1    LIG   0.0000
  26 C26          1.3769     4.0257     2.1892 C.ar         1    LIG   0.0000
  27 C27          1.0289     3.4232     3.4615 C.2          1    LIG   0.0000
  28 O28          0.4290     2.3842     3.4894 O.2          1    LIG   0.0000
  29 N29          1.3851     4.0401     4.6318 N.am         1    LIG   0.0000
  30 C30          1.0324     3.4293     5.9216 C.3          1    LIG   0.0000
  31 C31          1.5393     4.3072     7.0531 C.2          1    LIG   0.0000
  32 C32          0.8315     5.3172     7.6309 C.2          1    LIG   0.0000
  33 C33          1.6921     5.8470     8.6191 C.2          1    LIG   0.0000
  34 C34          2.8449     5.1238     8.5599 C.2          1    LIG   0.0000
  35 O35          2.7205     4.2131     7.6214 O.2          1    LIG   0.0000
  36 H           -1.4883     1.2436     1.0000 H            1    LIG   0.0000
  37 H           -1.4883     2.6579     1.8165 H            1    LIG   0.0000
  38 H           -1.4883     2.6579     0.1835 H            1    LIG   0.0000
  39 H            2.8533     1.4714     0.1835 H            1    LIG   0.0000
  40 H            2.8533     1.4714     1.8165 H            1    LIG   0.0000
  41 H            4.5677    -0.7735     2.2339 H            1    LIG   0.0000
  42 H            4.7468     0.5898     1.3531 H            1    LIG   0.0000
  43 H            5.4438    -0.5823    -0.4887 H            1    LIG   0.0000
  44 H            6.2379    -1.2698     0.7617 H            1    LIG   0.0000
  45 H            1.6830    -3.5118    -0.8268 H            1    LIG   0.0000
  46 H            2.7903    -5.6249    -0.6863 H            1    LIG   0.0000
  47 H            5.1032    -5.7055    -0.0762 H            1    LIG   0.0000
  48 H            7.0234    -3.2506     1.2851 H            1    LIG   0.0000
  49 H            7.0737    -3.6808    -2.5032 H            1    LIG   0.0000
  50 H            8.3355    -2.8543    -1.8775 H            1    LIG   0.0000
  51 H            8.5824    -4.2986    -2.5984 H            1    LIG   0.0000
  52 H            3.1137    -0.4266    -1.0506 H            1    LIG   0.0000
  53 H            1.7209    -1.0403    -0.4588 H            1    LIG   0.0000
  54 H            1.0919     3.5262    -1.0749 H            1    LIG   0.0000
  55 H            2.2848     5.5978    -1.1296 H            1    LIG   0.0000
  56 H            2.9056     6.6746     0.9129 H            1    LIG   0.0000
  57 H            2.3326     5.6802     3.0112 H            1    LIG   0.0000
  58 H            1.8850     4.9058     4.6086 H            1    LIG   0.0000
  59 H            1.4527     2.5243     5.9879 H            1    LIG   0.0000
  60 H            0.0385     3.3409     5.9878 H            1    LIG   0.0000
  61 H           -0.0951     5.6182     7.4053 H            1    LIG   0.0000
  62 H            1.4934     6.6049     9.2404 H            1    LIG   0.0000
  63 H            3.6512     5.2629     9.1347 H            1    LIG   0.0000
@<TRIPOS>BOND
   1        1        2 1
   2        2        3 am
   3        3        4 2
   4        3        5 1
   5        5        6 1
   6        6        7 1
   7        7        8 1
   8        8        9 1
   9        9       10 ar
  10       10       11 ar
  11       11       12 ar
  12       12       13 ar
  13       13       14 ar
  14       14        9 ar
  15       14       15 1
  16       15       16 1
  17       16       17 1
  18       16       18 2
  19       16       19 2
  20       10       20 1
  21       20        6 1
  22        2       21 1
  23       21       22 ar
  24       22       23 ar
  25       23       24 ar
  26       24       25 ar
  27       25       26 ar
  28       26       21 ar
  29       26       27 1
  30       27       28 2
  31       27       29 am
  32       29       30 1
  33       30       31 1
  34       31       32 2
  35       32       33 1
  36       33       34 2
  37       34       35 1
  38       35       31 1
  39        1       36 1
  40        1       37 1
  41        1       38 1
  42        5       39 1
  43        5       40 1
  44        7       41 1
  45        7       42 1
  46        8       43 1
  47        8       44 1
  48       11       45 1
  49       12       46 1
  50       13       47 1
  51       15       48 1
  52       17       49 1
  53       17       50 1
  54       17       51 1
  55       20       52 1
  56       20       53 1
  57       22       54 1
  58       23       55 1
  59       24       56 1
  60       25       57 1
  61       29       58 1
  62       30       59 1
  63       30       60 1
  64       32       61 1
  65       33       62 1
  66       34       63 1

@<TRIPOS>MOLECULE

  63   66
SMALL
USER_CHARGES
@<TRIPOS>ATOM
   1 C1          -1.1550     2.1865     1.0000 C.3          1    LIG   0.0000
   2 N2           0.3150     2.1865     1.0000 N.am         1    LIG   0.0000
   3 C3           1.0000     1.0000     1.0000 C.2          1    LIG   0.0000
   4 O4           0.4000    -0.0392     1.0000 O.2          1    LIG   0.0000
   5 C5           2.5200     1.0000     1.0000 C.3          1    LIG   0.0000
   6 N6           3.0108    -0.3882     1.0000 N.3          1    LIG   0.0000
   7 C7           2.8529    -0.9288     2.3639 C.3          1    LIG   0.0000
   8 C8           4.1072    -1.5477     2.9537 C.3          1    LIG   0.0000
   9 C9           4.7330    -2.4120     1.8821 C.ar         1    LIG   0.0000
  10 C10          4.8891    -1.8122     0.6428 C.ar         1    LIG   0.0000
  11 C11          5.4437    -2.5600    -0.3947 C.ar         1    LIG   0.0000
  12 C12          5.8282    -3.8836    -0.2010 C.ar         1    LIG   0.0000
  13 C13          5.6583    -4.4624     1.0516 C.ar         1    LIG   0.0000
  14 C14          5.1142    -3.7271     2.0992 C.ar         1    LIG   0.0000
  15 N15          4.9644    -4.3372     3.3508 N.pl3        1    LIG   0.0000
  16 S16          4.2401    -5.7929     3.4665 S.o2         1    LIG   0.0000
  17 C17          2.4738    -5.6178     3.1124 C.3          1    LIG   0.0000
  18 O18          4.8322    -6.7003     2.5181 O.2          1    LIG   0.0000
  19 O19          4.4135    -6.3107     4.7990 O.2          1    LIG   0.0000
  20 C20          4.4080    -0.3775     0.5192 C.3          1    LIG   0.0000
  21 C21          1.0152     3.3993     1.0000 C.ar         1    LIG   0.0000
  22 C22          1.3504     3.9771    -0.2205 C.ar         1    LIG   0.0000
  23 C23          2.0450     5.1820    -0.2523 C.ar         1    LIG   0.0000
  24 C24          2.4062     5.8085     0.9360 C.ar         1    LIG   0.0000
  25 C25          2.0724     5.2300     2.1570 C.ar         1    LIG   0.0000
  26 C26          1.3769     4.0257     2.1892 C.ar         1    LIG   0.0000
  27 C27          1.0289     3.4232     3.4615 C.2          1    LIG   0.0000
  28 O28          0.4290     2.3842     3.4894 O.2          1    LIG   0.0000
  29 N29          1.3851     4.0401     4.6318 N.am         1    LIG   0.0000
  30 C30          1.0324     3.4293     5.9216 C.3          1    LIG   0.0000
  31 C31          1.5393     4.3072     7.0531 C.2          1    LIG   0.0000
  32 C32          2.7661     4.1962     7.6339 C.2          1    LIG   0.0000
  33 C33          2.7925     5.2028     8.6259 C.2          1    LIG   0.0000
  34 C34          1.5881     5.8365     8.5699 C.2          1    LIG   0.0000
  35 O35          0.8672     5.2832     7.6213 O.2          1    LIG   0.0000
  36 H           -1.4883     1.2436     1.0000 H            1    LIG   0.0000
  37 H           -1.4883     2.6579     1.8165 H            1    LIG   0.0000
  38 H           -1.4883     2.6579     0.1835 H            1    LIG   0.0000
  39 H            2.8533     1.4714     0.1835 H            1    LIG   0.0000
  40 H            2.8533     1.4714     1.8165 H            1    LIG   0.0000
  41 H            2.1416    -1.6313     2.3394 H            1    LIG   0.0000
  42 H            2.5635    -0.1821     2.9627 H            1    LIG   0.0000
  43 H            4.7457    -0.8291     3.2291 H            1    LIG   0.0000
  44 H            3.8711    -2.1066     3.7487 H            1    LIG   0.0000
  45 H            5.5673    -2.1385    -1.2930 H            1    LIG   0.0000
  46 H            6.2219    -4.4117    -0.9534 H            1    LIG   0.0000
  47 H            5.9291    -5.4136     1.2003 H            1    LIG   0.0000
  48 H            5.3017    -3.8797     4.1736 H            1    LIG   0.0000
  49 H            2.0626    -4.9876     3.7710 H            1    LIG   0.0000
  50 H            2.3534    -5.2582     2.1871 H            1    LIG   0.0000
  51 H            2.0294    -6.5108     3.1834 H            1    LIG   0.0000
  52 H            4.9676     0.2288     1.0842 H            1    LIG   0.0000
  53 H            4.4477    -0.0762    -0.4335 H            1    LIG   0.0000
  54 H            1.0919     3.5262    -1.0749 H            1    LIG   0.0000
  55 H            2.2848     5.5978    -1.1296 H            1    LIG   0.0000
  56 H            2.9056     6.6746     0.9129 H            1    LIG   0.0000
  57 H            2.3326     5.6802     3.0112 H            1    LIG   0.0000
  58 H            1.8850     4.9058     4.6086 H            1    LIG   0.0000
  59 H            1.4527     2.5243     5.9879 H            1    LIG   0.0000
  60 H            0.0385     3.3409     5.9878 H            1    LIG   0.0000
  61 H            3.4903     3.5448     7.4079 H            1    LIG   0.0000
  62 H            3.5481     5.4093     9.2476 H            1    LIG   0.0000
  63 H            1.3007     6.5961     9.1533 H            1    LIG   0.0000
@<TRIPOS>BOND
   1        1        2 1
   2        2        3 am
   3        3        4 2
   4        3        5 1
   5        5        6 1
   6        6        7 1
   7        7        8 1
   8        8        9 1
   9        9       10 ar
  10       10       11 ar
  11       11       12 ar
  12       12       13 ar
  13       13       14 ar
  14       14        9 ar
  15       14       15 1
  16       15       16 1
  17       16       17 1
  18       16       18 2
  19       16       19 2
  20       10       20 1
  21       20        6 1
  22        2       21 1
  23       21       22 ar
  24       22       23 ar
  25       23       24 ar
  26       24       25 ar
  27       25       26 ar
  28       26       21 ar
  29       26       27 1
  30       27       28 2
  31       27       29 am
  32       29       30 1
  33       30       31 1
  34       31       32 2
  35       32       33 1
  36       33       34 2
  37       34       35 1
  38       35       31 1
  39        1       36 1
  40        1       37 1
  41        1       38 1
  42        5       39 1
  43        5       40 1
  44        7       41 1
  45        7       42 1
  46        8       43 1
  47        8       44 1
  48       11       45 1
  49       12       46 1
  50       13       47 1
  51       15       48 1
  52       17       49 1
  53       17       50 1
  54       17       51 1
  55       20       52 1
  56       20       53 1
  57       22       54 1
  58       23       55 1
  59       24       56 1
  60       25       57 1
  61       29       58 1
  62       30       59 1
  63       30       60 1
  64       32       61 1
  65       33       62 1
  66       34       63 1

@<TRIPOS>MOLECULE

  63   66
SMALL
USER_CHARGES
@<TRIPOS>ATOM
   1 C1           1.0500     3.4595     1.0000 C.3          1    LIG   0.0000
   2 N2           0.3150     2.1865     1.0000 N.am         1    LIG   0.0000
   3 C3           1.0000     1.0000     1.0000 C.2          1    LIG   0.0000
   4 O4           0.4000    -0.0392     1.0000 O.2          1    LIG   0.0000
   5 C5           2.5200     1.0000     1.0000 C.3          1    LIG   0.0000
   6 N6           3.0108    -0.3882     1.0000 N.3          1    LIG   0.0000
   7 C7           2.8529    -0.9288     2.3639 C.3          1    LIG   0.0000
   8 C8           4.1072    -1.5477     2.9537 C.3          1    LIG   0.0000
   9 C9           4.7330    -2.4120     1.8821 C.ar         1    LIG   0.0000
  10 C10          4.8891    -1.8122     0.6428 C.ar         1    LIG   0.0000
  11 C11          5.4437    -2.5600    -0.3947 C.ar         1    LIG   0.0000
  12 C12          5.8282    -3.8836    -0.2010 C.ar         1    LIG   0.0000
  13 C13          5.6583    -4.4624     1.0516 C.ar         1    LIG   0.0000
  14 C14          5.1142    -3.7271     2.0992 C.ar         1    LIG   0.0000
  15 N15          4.9644    -4.3372     3.3508 N.pl3        1    LIG   0.0000
  16 S16          4.2401    -5.7929     3.4665 S.o2         1    LIG   0.0000
  17 C17          2.4738    -5.6178     3.1124 C.3          1    LIG   0.0000
  18 O18          4.8322    -6.7003     2.5181 O.2          1    LIG   0.0000
  19 O19          4.4135    -6.3107     4.7990 O.2          1    LIG   0.0000
  20 C20          4.4080    -0.3775     0.5192 C.3          1    LIG   0.0000
  21 C21         -1.0855     2.1865     1.0000 C.ar         1    LIG   0.0000
  22 C22         -1.7534     2.1878    -0.2205 C.ar         1    LIG   0.0000
  23 C23         -3.1442     2.1869    -0.2523 C.ar         1    LIG   0.0000
  24 C24         -3.8674     2.1864     0.9360 C.ar         1    LIG   0.0000
  25 C25         -3.1995     2.1866     2.1570 C.ar         1    LIG   0.0000
  26 C26         -1.8088     2.1865     2.1892 C.ar         1    LIG   0.0000
  27 C27         -1.1130     2.1864     3.4615 C.2          1    LIG   0.0000
  28 O28          0.0867     2.1863     3.4894 O.2          1    LIG   0.0000
  29 N29         -1.8253     2.1864     4.6318 N.am         1    LIG   0.0000
  30 C30         -1.1200     2.1863     5.9216 C.3          1    LIG   0.0000
  31 C31         -2.1338     2.1863     7.0531 C.2          1    LIG   0.0000
  32 C32         -2.6545     1.0684     7.6309 C.2          1    LIG   0.0000
  33 C33         -3.5436     1.5488     8.6191 C.2          1    LIG   0.0000
  34 C34         -3.4937     2.9087     8.5599 C.2          1    LIG   0.0000
  35 O35         -2.6428     3.2563     7.6214 O.2          1    LIG   0.0000
  36 H            2.0332     3.2768     1.0000 H            1    LIG   0.0000
  37 H            0.8084     3.9839     0.1835 H            1    LIG   0.0000
  38 H            0.8084     3.9839     1.8165 H            1    LIG   0.0000
  39 H            2.8533     1.4714     0.1835 H            1    LIG   0.0000
  40 H            2.8533     1.4714     1.8165 H            1    LIG   0.0000
  41 H            2.1416    -1.6313     2.3394 H            1    LIG   0.0000
  42 H            2.5635    -0.1821     2.9627 H            1    LIG   0.0000
  43 H            4.7457    -0.8291     3.2291 H            1    LIG   0.0000
  44 H            3.8711    -2.1066     3.7487 H            1    LIG   0.0000
  45 H            5.5673    -2.1385    -1.2930 H            1    LIG   0.0000
  46 H            6.2219    -4.4117    -0.9534 H            1    LIG   0.0000
  47 H            5.9291    -5.4136     1.2003 H            1    LIG   0.0000
  48 H            5.3017    -3.8797     4.1736 H            1    LIG   0.0000
  49 H            2.0626    -4.9876     3.7710 H            1    LIG   0.0000
  50 H            2.3534    -5.2582     2.1871 H            1    LIG   0.0000
  51 H            2.0294    -6.5108     3.1834 H            1    LIG   0.0000
  52 H            4.9676     0.2288     1.0842 H            1    LIG   0.0000
  53 H            4.4477    -0.0762    -0.4335 H            1    LIG   0.0000
  54 H           -1.2337     2.1894    -1.0749 H            1    LIG   0.0000
  55 H           -3.6242     2.1867    -1.1296 H            1    LIG   0.0000
  56 H           -4.8671     2.1860     0.9129 H            1    LIG   0.0000
  57 H           -3.7194     2.1869     3.0112 H            1    LIG   0.0000
  58 H           -2.8250     2.1864     4.6086 H            1    LIG   0.0000
  59 H           -0.5465     3.0028     5.9879 H            1    LIG   0.0000
  60 H           -0.5465     1.3698     5.9878 H            1    LIG   0.0000
  61 H           -2.4520     0.1155     7.4053 H            1    LIG   0.0000
  62 H           -4.1007     0.9978     9.2404 H            1    LIG   0.0000
  63 H           -4.0174     3.5374     9.1347 H            1    LIG   0.0000
@<TRIPOS>BOND
   1        1        2 1
   2        2        3 am
   3        3        4 2
   4        3        5 1
   5        5        6 1
   6        6        7 1
   7        7        8 1
   8        8        9 1
   9        9       10 ar
  10       10       11 ar
  11       11       12 ar
  12       12       13 ar
  13       13       14 ar
  14       14        9 ar
  15       14       15 1
  16       15       16 1
  17       16       17 1
  18       16       18 2
  19       16       19 2
  20       10       20 1
  21       20        6 1
  22        2       21 1
  23       21       22 ar
  24       22       23 ar
  25       23       24 ar
  26       24       25 ar
  27       25       26 ar
  28       26       21 ar
  29       26       27 1
  30       27       28 2
  31       27       29 am
  32       29       30 1
  33       30       31 1
  34       31       32 2
  35       32       33 1
  36       33       34 2
  37       34       35 1
  38       35       31 1
  39        1       36 1
  40        1       37 1
  41        1       38 1
  42        5       39 1
  43        5       40 1
  44        7       41 1
  45        7       42 1
  46        8       43 1
  47        8       44 1
  48       11       45 1
  49       12       46 1
  50       13       47 1
  51       15       48 1
  52       17       49 1
  53       17       50 1
  54       17       51 1
  55       20       52 1
  56       20       53 1
  57       22       54 1
  58       23       55 1
  59       24       56 1
  60       25       57 1
  61       29       58 1
  62       30       59 1
  63       30       60 1
  64       32       61 1
  65       33       62 1
  66       34       63 1

@<TRIPOS>MOLECULE

  63   66
SMALL
USER_CHARGES
@<TRIPOS>ATOM
   1 C1           1.0500     3.4595     1.0000 C.3          1    LIG   0.0000
   2 N2           0.3150     2.1865     1.0000 N.am         1    LIG   0.0000
   3 C3           1.0000     1.0000     1.0000 C.2          1    LIG   0.0000
   4 O4           0.4000    -0.0392     1.0000 O.2          1    LIG   0.0000
   5 C5           2.5200     1.0000     1.0000 C.3          1    LIG   0.0000
   6 N6           3.0102    -0.3865     1.0000 N.3          1    LIG   0.0000
   7 C7           2.7252    -0.9498    -0.3441 C.3          1    LIG   0.0000
   8 C8           3.9252    -1.5702    -1.0433 C.3          1    LIG   0.0000
   9 C9           4.5772    -2.4143     0.0406 C.ar         1    LIG   0.0000
  10 C10          4.8303    -1.8350     1.2756 C.ar         1    LIG   0.0000
  11 C11          5.4145    -2.5696     2.2937 C.ar         1    LIG   0.0000
  12 C12          5.7370    -3.9059     2.0838 C.ar         1    LIG   0.0000
  13 C13          5.4742    -4.4973     0.8531 C.ar         1    LIG   0.0000
  14 C14          4.8965    -3.7497    -0.1676 C.ar         1    LIG   0.0000
  15 N15          4.6441    -4.3694    -1.3948 N.pl3        1    LIG   0.0000
  16 S16          3.8571    -5.7960    -1.4408 S.o2         1    LIG   0.0000
  17 C17          2.1250    -5.5448    -0.9794 C.3          1    LIG   0.0000
  18 O18          3.9251    -6.3390    -2.7728 O.2          1    LIG   0.0000
  19 O19          4.4718    -6.7134    -0.5166 O.2          1    LIG   0.0000
  20 C20          4.3889    -0.3927     1.4724 C.3          1    LIG   0.0000
  21 C21         -1.0855     2.1865     1.0000 C.ar         1    LIG   0.0000
  22 C22         -1.7534     2.1878    -0.2205 C.ar         1    LIG   0.0000
  23 C23         -3.1442     2.1869    -0.2523 C.ar         1    LIG   0.0000
  24 C24         -3.8674     2.1864     0.9360 C.ar         1    LIG   0.0000
  25 C25         -3.1995     2.1866     2.1570 C.ar         1    LIG   0.0000
  26 C26         -1.8088     2.1865     2.1892 C.ar         1    LIG   0.0000
  27 C27         -1.1130     2.1864     3.4615 C.2          1    LIG   0.0000
  28 O28          0.0867     2.1863     3.4894 O.2          1    LIG   0.0000
  29 N29         -1.8253     2.1864     4.6318 N.am         1    LIG   0.0000
  30 C30         -1.1200     2.1863     5.9216 C.3          1    LIG   0.0000
  31 C31         -2.1338     2.1863     7.0531 C.2          1    LIG   0.0000
  32 C32         -2.6545     1.0684     7.6309 C.2          1    LIG   0.0000
  33 C33         -3.5436     1.5488     8.6191 C.2          1    LIG   0.0000
  34 C34         -3.4937     2.9087     8.5599 C.2          1    LIG   0.0000
  35 O35         -2.6428     3.2563     7.6214 O.2          1    LIG   0.0000
  36 H            2.0332     3.2768     1.0000 H            1    LIG   0.0000
  37 H            0.8084     3.9839     0.1835 H            1    LIG   0.0000
  38 H            0.8084     3.9839     1.8165 H            1    LIG   0.0000
  39 H            2.8533     1.4714     0.1835 H            1    LIG   0.0000
  40 H            2.8533     1.4714     1.8165 H            1    LIG   0.0000
  41 H            2.3749    -0.2129    -0.9223 H            1    LIG   0.0000
  42 H            2.0245    -1.6561    -0.2433 H            1    LIG   0.0000
  43 H            3.6347    -2.1397    -1.8123 H            1    LIG   0.0000
  44 H            4.5522    -0.8632    -1.3703 H            1    LIG   0.0000
  45 H            5.6039    -2.1405     3.1769 H            1    LIG   0.0000
  46 H            6.1573    -4.4408     2.8169 H            1    LIG   0.0000
  47 H            5.7004    -5.4595     0.7020 H            1    LIG   0.0000
  48 H            4.9464    -3.9375    -2.2445 H            1    LIG   0.0000
  49 H            2.0778    -5.1677    -0.0544 H            1    LIG   0.0000
  50 H            1.6981    -4.9077    -1.6212 H            1    LIG   0.0000
  51 H            1.6422    -6.4200    -1.0076 H            1    LIG   0.0000
  52 H            4.4366    -0.1334     2.4370 H            1    LIG   0.0000
  53 H            4.9540     0.2303     0.9314 H            1    LIG   0.0000
  54 H           -1.2337     2.1894    -1.0749 H            1    LIG   0.0000
  55 H           -3.6242     2.1867    -1.1296 H            1    LIG   0.0000
  56 H           -4.8671     2.1860     0.9129 H            1    LIG   0.0000
  57 H           -3.7194     2.1869     3.0112 H            1    LIG   0.0000
  58 H           -2.8250     2.1864     4.6086 H            1    LIG   0.0000
  59 H           -0.5465     3.0028     5.9879 H            1    LIG   0.0000
  60 H           -0.5465     1.3698     5.9878 H            1    LIG   0.0000
  61 H           -2.4520     0.1155     7.4053 H            1    LIG   0.0000
  62 H           -4.1007     0.9978     9.2404 H            1    LIG   0.0000
  63 H           -4.0174     3.5374     9.1347 H            1    LIG   0.0000
@<TRIPOS>BOND
   1        1        2 1
   2        2        3 am
   3        3        4 2
   4        3        5 1
   5        5        6 1
   6        6        7 1
   7        7        8 1
   8        8        9 1
   9        9       10 ar
  10       10       11 ar
  11       11       12 ar
  12       12       13 ar
  13       13       14 ar
  14       14        9 ar
  15       14       15 1
  16       15       16 1
  17       16       17 1
  18       16       18 2
  19       16       19 2
  20       10       20 1
  21       20        6 1
  22        2       21 1
  23       21       22 ar
  24       22       23 ar
  25       23       24 ar
  26       24       25 ar
  27       25       26 ar
  28       26       21 ar
  29       26       27 1
  30       27       28 2
  31       27       29 am
  32       29       30 1
  33       30       31 1
  34       31       32 2
  35       32       33 1
  36       33       34 2
  37       34       35 1
  38       35       31 1
  39        1       36 1
  40        1       37 1
  41        1       38 1
  42        5       39 1
  43        5       40 1
  44        7       41 1
  45        7       42 1
  46        8       43 1
  47        8       44 1
  48       11       45 1
  49       12       46 1
  50       13       47 1
  51       15       48 1
  52       17       49 1
  53       17       50 1
  54       17       51 1
  55       20       52 1
  56       20       53 1
  57       22       54 1
  58       23       55 1
  59       24       56 1
  60       25       57 1
  61       29       58 1
  62       30       59 1
  63       30       60 1
  64       32       61 1
  65       33       62 1
  66       34       63 1

