@<TRIPOS>MOLECULE
*****
 63 66 0 0 0
SMALL
USER_CHARGES

@<TRIPOS>ATOM
      1 C1          1.0500    3.4595    1.0000 C.3     1  LIG1        0.0000
      2 N2          0.3150    2.1865    1.0000 N.am    1  LIG1        0.0000
      3 C3          1.0000    1.0000    1.0000 C.2     1  LIG1        0.0000
      4 O4          0.4000   -0.0392    1.0000 O.2     1  LIG1        0.0000
      5 C5          2.5200    1.0000    1.0000 C.3     1  LIG1        0.0000
      6 N6          3.0098   -0.3855    1.0000 N.3     1  LIG1        0.0000
      7 C7          2.8296   -0.9824    2.3368 C.3     1  LIG1        0.0000
      8 C8          3.1714   -2.4602    2.2796 C.3     1  LIG1        0.0000
      9 C9          4.5031   -2.7431    1.5786 C.3     1  LIG1        0.0000
     10 C10         5.0688   -1.7905    0.7273 C.3     1  LIG1        0.0000
     11 C11         6.2650   -2.0937    0.0810 C.3     1  LIG1        0.0000
     12 C12         6.8950   -3.3170    0.2807 C.3     1  LIG1        0.0000
     13 C13         6.3239   -4.2547    1.1351 C.3     1  LIG1        0.0000
     14 C14         5.1296   -3.9645    1.7843 C.3     1  LIG1        0.0000
     15 N15         4.5833   -4.9361    2.6312 N.pl3   1  LIG1        0.0000
     16 S16         4.4188   -6.4718    2.1104 S.O2    1  LIG1        0.0000
     17 C17         3.1208   -6.5461    0.8511 C.3     1  LIG1        0.0000
     18 O18         5.6636   -6.9225    1.5438 O.2     1  LIG1        0.0000
     19 O19         4.0613   -7.3188    3.2187 O.2     1  LIG1        0.0000
     20 C20         4.3946   -0.4376    0.5311 C.3     1  LIG1        0.0000
     21 C21        -1.0855    2.1865    1.0000 C.3     1  LIG1        0.0000
     22 C22        -1.7534    2.1851    2.2205 C.3     1  LIG1        0.0000
     23 C23        -3.1442    2.1860    2.2523 C.3     1  LIG1        0.0000
     24 C24        -3.8674    2.1865    1.0640 C.3     1  LIG1        0.0000
     25 C25        -3.1995    2.1863   -0.1570 C.3     1  LIG1        0.0000
     26 C26        -1.8088    2.1865   -0.1892 C.3     1  LIG1        0.0000
     27 C27        -1.1130    2.1865   -1.4615 C.2     1  LIG1        0.0000
     28 O28         0.0867    2.1866   -1.4894 O.2     1  LIG1        0.0000
     29 N29        -1.8253    2.1865   -2.6318 N.am    1  LIG1        0.0000
     30 C30        -1.1200    2.1866   -3.9216 C.3     1  LIG1        0.0000
     31 C31        -0.8770    0.7543   -4.3659 C.2     1  LIG1        0.0000
     32 C32         0.2293    0.0217   -4.0589 C.2     1  LIG1        0.0000
     33 C33         0.0218   -1.2306   -4.6805 C.2     1  LIG1        0.0000
     34 C34        -1.1827   -1.1568   -5.3124 C.2     1  LIG1        0.0000
     35 O35        -1.6937    0.0349   -5.1024 O.2     1  LIG1        0.0000
     36 H           2.0332    3.2768    1.0000 H       1  LIG1        0.0000
     37 H           0.8084    3.9839    0.1835 H       1  LIG1        0.0000
     38 H           0.8084    3.9839    1.8165 H       1  LIG1        0.0000
     39 H           2.8533    1.4714    0.1835 H       1  LIG1        0.0000
     40 H           2.8533    1.4714    1.8165 H       1  LIG1        0.0000
     41 H           1.8790   -0.8709    2.6266 H       1  LIG1        0.0000
     42 H           3.4331   -0.5255    2.9903 H       1  LIG1        0.0000
     43 H           3.2233   -2.8111    3.2146 H       1  LIG1        0.0000
     44 H           2.4442   -2.9360    1.7849 H       1  LIG1        0.0000
     45 H           6.6764   -1.4221   -0.5352 H       1  LIG1        0.0000
     46 H           7.7545   -3.5219   -0.1876 H       1  LIG1        0.0000
     47 H           6.7722   -5.1364    1.2820 H       1  LIG1        0.0000
     48 H           4.2940   -4.6879    3.5557 H       1  LIG1        0.0000
     49 H           2.2564   -6.2331    1.2445 H       1  LIG1        0.0000
     50 H           3.3691   -5.9579    0.0814 H       1  LIG1        0.0000
     51 H           3.0199   -7.4883    0.5316 H       1  LIG1        0.0000
     52 H           4.9211    0.2507    1.0302 H       1  LIG1        0.0000
     53 H           4.4038   -0.2210   -0.4451 H       1  LIG1        0.0000
     54 H          -1.2337    2.1835    3.0749 H       1  LIG1        0.0000
     55 H          -3.6242    2.1862    3.1296 H       1  LIG1        0.0000
     56 H          -4.8671    2.1869    1.0871 H       1  LIG1        0.0000
     57 H          -3.7194    2.1860   -1.0112 H       1  LIG1        0.0000
     58 H          -2.8250    2.1865   -2.6086 H       1  LIG1        0.0000
     59 H          -0.2437    2.6580   -3.8223 H       1  LIG1        0.0000
     60 H          -1.6765    2.6580   -4.6057 H       1  LIG1        0.0000
     61 H           1.0167    0.3075   -3.5127 H       1  LIG1        0.0000
     62 H           0.6389   -2.0172   -4.6604 H       1  LIG1        0.0000
     63 H          -1.6070   -1.8879   -5.8468 H       1  LIG1        0.0000
@<TRIPOS>BOND
     1     1     2    1
     2     2     3   am
     3     3     4    2
     4     3     5    1
     5     5     6    1
     6     6     7    1
     7     7     8    1
     8     8     9    1
     9     9    10   ar
    10    10    11   ar
    11    11    12   ar
    12    12    13   ar
    13    13    14   ar
    14    14     9   ar
    15    14    15    1
    16    15    16    1
    17    16    17    1
    18    16    18    2
    19    16    19    2
    20    10    20    1
    21    20     6    1
    22     2    21    1
    23    21    22   ar
    24    22    23   ar
    25    23    24   ar
    26    24    25   ar
    27    25    26   ar
    28    26    21   ar
    29    26    27    1
    30    27    28    2
    31    27    29   am
    32    29    30    1
    33    30    31    1
    34    31    32    2
    35    32    33    1
    36    33    34    2
    37    34    35    1
    38    35    31    1
    39     1    36    1
    40     1    37    1
    41     1    38    1
    42     5    39    1
    43     5    40    1
    44     7    41    1
    45     7    42    1
    46     8    43    1
    47     8    44    1
    48    11    45    1
    49    12    46    1
    50    13    47    1
    51    15    48    1
    52    17    49    1
    53    17    50    1
    54    17    51    1
    55    20    52    1
    56    20    53    1
    57    22    54    1
    58    23    55    1
    59    24    56    1
    60    25    57    1
    61    29    58    1
    62    30    59    1
    63    30    60    1
    64    32    61    1
    65    33    62    1
    66    34    63    1
