@<TRIPOS>MOLECULE
*****
 63 66 0 0 0
SMALL
USER_CHARGES

@<TRIPOS>ATOM
      1 C1         -1.1550    2.1865    1.0000 C.3     1  LIG1        0.0000
      2 N2          0.3150    2.1865    1.0000 N.am    1  LIG1        0.0000
      3 C3          1.0000    1.0000    1.0000 C.2     1  LIG1        0.0000
      4 O4          0.4000   -0.0392    1.0000 O.2     1  LIG1        0.0000
      5 C5          2.5200    1.0000    1.0000 C.3     1  LIG1        0.0000
      6 N6          3.0108   -0.3882    1.0000 N.3     1  LIG1        0.0000
      7 C7          2.8529   -0.9288    2.3639 C.3     1  LIG1        0.0000
      8 C8          4.1072   -1.5477    2.9537 C.3     1  LIG1        0.0000
      9 C9          4.7330   -2.4120    1.8821 C.3     1  LIG1        0.0000
     10 C10         4.8891   -1.8122    0.6428 C.3     1  LIG1        0.0000
     11 C11         5.4437   -2.5600   -0.3947 C.3     1  LIG1        0.0000
     12 C12         5.8282   -3.8836   -0.2010 C.3     1  LIG1        0.0000
     13 C13         5.6583   -4.4624    1.0516 C.3     1  LIG1        0.0000
     14 C14         5.1142   -3.7271    2.0992 C.3     1  LIG1        0.0000
     15 N15         4.9644   -4.3372    3.3508 N.pl3   1  LIG1        0.0000
     16 S16         4.2401   -5.7929    3.4665 S.O2    1  LIG1        0.0000
     17 C17         2.4738   -5.6178    3.1124 C.3     1  LIG1        0.0000
     18 O18         4.8322   -6.7003    2.5181 O.2     1  LIG1        0.0000
     19 O19         4.4135   -6.3107    4.7990 O.2     1  LIG1        0.0000
     20 C20         4.4080   -0.3775    0.5192 C.3     1  LIG1        0.0000
     21 C21         1.0152    3.3993    1.0000 C.3     1  LIG1        0.0000
     22 C22         1.3504    3.9771   -0.2205 C.3     1  LIG1        0.0000
     23 C23         2.0450    5.1820   -0.2523 C.3     1  LIG1        0.0000
     24 C24         2.4062    5.8085    0.9360 C.3     1  LIG1        0.0000
     25 C25         2.0724    5.2300    2.1570 C.3     1  LIG1        0.0000
     26 C26         1.3769    4.0257    2.1892 C.3     1  LIG1        0.0000
     27 C27         1.0289    3.4232    3.4615 C.2     1  LIG1        0.0000
     28 O28         0.4290    2.3842    3.4894 O.2     1  LIG1        0.0000
     29 N29         1.3851    4.0401    4.6318 N.am    1  LIG1        0.0000
     30 C30         1.0324    3.4293    5.9216 C.3     1  LIG1        0.0000
     31 C31         1.5393    4.3072    7.0531 C.2     1  LIG1        0.0000
     32 C32         2.7661    4.1962    7.6339 C.2     1  LIG1        0.0000
     33 C33         2.7925    5.2028    8.6259 C.2     1  LIG1        0.0000
     34 C34         1.5881    5.8365    8.5699 C.2     1  LIG1        0.0000
     35 O35         0.8672    5.2832    7.6213 O.2     1  LIG1        0.0000
     36 H          -1.4883    1.2436    1.0000 H       1  LIG1        0.0000
     37 H          -1.4883    2.6579    1.8165 H       1  LIG1        0.0000
     38 H          -1.4883    2.6579    0.1835 H       1  LIG1        0.0000
     39 H           2.8533    1.4714    0.1835 H       1  LIG1        0.0000
     40 H           2.8533    1.4714    1.8165 H       1  LIG1        0.0000
     41 H           2.1416   -1.6313    2.3394 H       1  LIG1        0.0000
     42 H           2.5635   -0.1821    2.9627 H       1  LIG1        0.0000
     43 H           4.7457   -0.8291    3.2291 H       1  LIG1        0.0000
     44 H           3.8711   -2.1066    3.7487 H       1  LIG1        0.0000
     45 H           5.5673   -2.1385   -1.2930 H       1  LIG1        0.0000
     46 H           6.2219   -4.4117   -0.9534 H       1  LIG1        0.0000
     47 H           5.9291   -5.4136    1.2003 H       1  LIG1        0.0000
     48 H           5.3017   -3.8797    4.1736 H       1  LIG1        0.0000
     49 H           2.0626   -4.9876    3.7710 H       1  LIG1        0.0000
     50 H           2.3534   -5.2582    2.1871 H       1  LIG1        0.0000
     51 H           2.0294   -6.5108    3.1834 H       1  LIG1        0.0000
     52 H           4.9676    0.2288    1.0842 H       1  LIG1        0.0000
     53 H           4.4477   -0.0762   -0.4335 H       1  LIG1        0.0000
     54 H           1.0919    3.5262   -1.0749 H       1  LIG1        0.0000
     55 H           2.2848    5.5978   -1.1296 H       1  LIG1        0.0000
     56 H           2.9056    6.6746    0.9129 H       1  LIG1        0.0000
     57 H           2.3326    5.6802    3.0112 H       1  LIG1        0.0000
     58 H           1.8850    4.9058    4.6086 H       1  LIG1        0.0000
     59 H           1.4527    2.5243    5.9879 H       1  LIG1        0.0000
     60 H           0.0385    3.3409    5.9878 H       1  LIG1        0.0000
     61 H           3.4903    3.5448    7.4079 H       1  LIG1        0.0000
     62 H           3.5481    5.4093    9.2476 H       1  LIG1        0.0000
     63 H           1.3007    6.5961    9.1533 H       1  LIG1        0.0000
@<TRIPOS>BOND
     1     1     2    1
     2     2     3   am
     3     3     4    2
     4     3     5    1
     5     5     6    1
     6     6     7    1
     7     7     8    1
     8     8     9    1
     9     9    10   ar
    10    10    11   ar
    11    11    12   ar
    12    12    13   ar
    13    13    14   ar
    14    14     9   ar
    15    14    15    1
    16    15    16    1
    17    16    17    1
    18    16    18    2
    19    16    19    2
    20    10    20    1
    21    20     6    1
    22     2    21    1
    23    21    22   ar
    24    22    23   ar
    25    23    24   ar
    26    24    25   ar
    27    25    26   ar
    28    26    21   ar
    29    26    27    1
    30    27    28    2
    31    27    29   am
    32    29    30    1
    33    30    31    1
    34    31    32    2
    35    32    33    1
    36    33    34    2
    37    34    35    1
    38    35    31    1
    39     1    36    1
    40     1    37    1
    41     1    38    1
    42     5    39    1
    43     5    40    1
    44     7    41    1
    45     7    42    1
    46     8    43    1
    47     8    44    1
    48    11    45    1
    49    12    46    1
    50    13    47    1
    51    15    48    1
    52    17    49    1
    53    17    50    1
    54    17    51    1
    55    20    52    1
    56    20    53    1
    57    22    54    1
    58    23    55    1
    59    24    56    1
    60    25    57    1
    61    29    58    1
    62    30    59    1
    63    30    60    1
    64    32    61    1
    65    33    62    1
    66    34    63    1
