@<TRIPOS>MOLECULE
*****
 63 66 0 0 0
SMALL
USER_CHARGES

@<TRIPOS>ATOM
      1 C1         -1.1550    2.1865    1.0000 C.3     1  LIG1        0.0000
      2 N2          0.3150    2.1865    1.0000 N.am    1  LIG1        0.0000
      3 C3          1.0000    1.0000    1.0000 C.2     1  LIG1        0.0000
      4 O4          0.4000   -0.0392    1.0000 O.2     1  LIG1        0.0000
      5 C5          2.5200    1.0000    1.0000 C.3     1  LIG1        0.0000
      6 N6          3.0108   -0.3882    1.0000 N.3     1  LIG1        0.0000
      7 C7          4.4490   -0.3645    1.3291 C.3     1  LIG1        0.0000
      8 C8          5.3390   -1.1122    0.3528 C.3     1  LIG1        0.0000
      9 C9          4.6698   -2.4343    0.0509 C.3     1  LIG1        0.0000
     10 C10         3.3303   -2.3633   -0.2962 C.3     1  LIG1        0.0000
     11 C11         2.6488   -3.5482   -0.5698 C.3     1  LIG1        0.0000
     12 C12         3.2901   -4.7810   -0.4912 C.3     1  LIG1        0.0000
     13 C13         4.6341   -4.8246   -0.1380 C.3     1  LIG1        0.0000
     14 C14         5.3302   -3.6508    0.1299 C.3     1  LIG1        0.0000
     15 N15         6.6853   -3.7287    0.4745 N.pl3   1  LIG1        0.0000
     16 S16         7.7115   -4.5988   -0.4457 S.O2    1  LIG1        0.0000
     17 C17         7.9528   -3.7648   -2.0339 C.3     1  LIG1        0.0000
     18 O18         8.9773   -4.7198    0.2301 O.2     1  LIG1        0.0000
     19 O19         7.1604   -5.9100   -0.6709 O.2     1  LIG1        0.0000
     20 C20         2.7094   -0.9781   -0.3209 C.3     1  LIG1        0.0000
     21 C21         1.0152    3.3993    1.0000 C.3     1  LIG1        0.0000
     22 C22         1.3504    3.9771   -0.2205 C.3     1  LIG1        0.0000
     23 C23         2.0450    5.1820   -0.2523 C.3     1  LIG1        0.0000
     24 C24         2.4062    5.8085    0.9360 C.3     1  LIG1        0.0000
     25 C25         2.0724    5.2300    2.1570 C.3     1  LIG1        0.0000
     26 C26         1.3769    4.0257    2.1892 C.3     1  LIG1        0.0000
     27 C27         1.0289    3.4232    3.4615 C.2     1  LIG1        0.0000
     28 O28         0.4290    2.3842    3.4894 O.2     1  LIG1        0.0000
     29 N29         1.3851    4.0401    4.6318 N.am    1  LIG1        0.0000
     30 C30         1.0324    3.4293    5.9216 C.3     1  LIG1        0.0000
     31 C31         1.5393    4.3072    7.0531 C.2     1  LIG1        0.0000
     32 C32         0.8315    5.3172    7.6309 C.2     1  LIG1        0.0000
     33 C33         1.6921    5.8470    8.6191 C.2     1  LIG1        0.0000
     34 C34         2.8449    5.1238    8.5599 C.2     1  LIG1        0.0000
     35 O35         2.7205    4.2131    7.6214 O.2     1  LIG1        0.0000
     36 H          -1.4883    1.2436    1.0000 H       1  LIG1        0.0000
     37 H          -1.4883    2.6579    1.8165 H       1  LIG1        0.0000
     38 H          -1.4883    2.6579    0.1835 H       1  LIG1        0.0000
     39 H           2.8533    1.4714    0.1835 H       1  LIG1        0.0000
     40 H           2.8533    1.4714    1.8165 H       1  LIG1        0.0000
     41 H           4.5677   -0.7735    2.2339 H       1  LIG1        0.0000
     42 H           4.7468    0.5898    1.3531 H       1  LIG1        0.0000
     43 H           5.4438   -0.5823   -0.4887 H       1  LIG1        0.0000
     44 H           6.2379   -1.2698    0.7617 H       1  LIG1        0.0000
     45 H           1.6830   -3.5118   -0.8268 H       1  LIG1        0.0000
     46 H           2.7903   -5.6249   -0.6863 H       1  LIG1        0.0000
     47 H           5.1032   -5.7055   -0.0762 H       1  LIG1        0.0000
     48 H           7.0234   -3.2506    1.2851 H       1  LIG1        0.0000
     49 H           7.0737   -3.6808   -2.5032 H       1  LIG1        0.0000
     50 H           8.3355   -2.8543   -1.8775 H       1  LIG1        0.0000
     51 H           8.5824   -4.2986   -2.5984 H       1  LIG1        0.0000
     52 H           3.1137   -0.4266   -1.0506 H       1  LIG1        0.0000
     53 H           1.7209   -1.0403   -0.4588 H       1  LIG1        0.0000
     54 H           1.0919    3.5262   -1.0749 H       1  LIG1        0.0000
     55 H           2.2848    5.5978   -1.1296 H       1  LIG1        0.0000
     56 H           2.9056    6.6746    0.9129 H       1  LIG1        0.0000
     57 H           2.3326    5.6802    3.0112 H       1  LIG1        0.0000
     58 H           1.8850    4.9058    4.6086 H       1  LIG1        0.0000
     59 H           1.4527    2.5243    5.9879 H       1  LIG1        0.0000
     60 H           0.0385    3.3409    5.9878 H       1  LIG1        0.0000
     61 H          -0.0951    5.6182    7.4053 H       1  LIG1        0.0000
     62 H           1.4934    6.6049    9.2404 H       1  LIG1        0.0000
     63 H           3.6512    5.2629    9.1347 H       1  LIG1        0.0000
@<TRIPOS>BOND
     1     1     2    1
     2     2     3   am
     3     3     4    2
     4     3     5    1
     5     5     6    1
     6     6     7    1
     7     7     8    1
     8     8     9    1
     9     9    10   ar
    10    10    11   ar
    11    11    12   ar
    12    12    13   ar
    13    13    14   ar
    14    14     9   ar
    15    14    15    1
    16    15    16    1
    17    16    17    1
    18    16    18    2
    19    16    19    2
    20    10    20    1
    21    20     6    1
    22     2    21    1
    23    21    22   ar
    24    22    23   ar
    25    23    24   ar
    26    24    25   ar
    27    25    26   ar
    28    26    21   ar
    29    26    27    1
    30    27    28    2
    31    27    29   am
    32    29    30    1
    33    30    31    1
    34    31    32    2
    35    32    33    1
    36    33    34    2
    37    34    35    1
    38    35    31    1
    39     1    36    1
    40     1    37    1
    41     1    38    1
    42     5    39    1
    43     5    40    1
    44     7    41    1
    45     7    42    1
    46     8    43    1
    47     8    44    1
    48    11    45    1
    49    12    46    1
    50    13    47    1
    51    15    48    1
    52    17    49    1
    53    17    50    1
    54    17    51    1
    55    20    52    1
    56    20    53    1
    57    22    54    1
    58    23    55    1
    59    24    56    1
    60    25    57    1
    61    29    58    1
    62    30    59    1
    63    30    60    1
    64    32    61    1
    65    33    62    1
    66    34    63    1
