@<TRIPOS>MOLECULE
*****
 63 66 0 0 0
SMALL
USER_CHARGES

@<TRIPOS>ATOM
      1 C1         -1.1550    2.1865    1.0000 C.3     1  LIG1        0.0000
      2 N2          0.3150    2.1865    1.0000 N.am    1  LIG1        0.0000
      3 C3          1.0000    1.0000    1.0000 C.2     1  LIG1        0.0000
      4 O4          0.4000   -0.0392    1.0000 O.2     1  LIG1        0.0000
      5 C5          2.5200    1.0000    1.0000 C.3     1  LIG1        0.0000
      6 N6          3.0100   -0.3859    1.0000 N.3     1  LIG1        0.0000
      7 C7          4.4604   -0.4261    0.7791 C.3     1  LIG1        0.0000
      8 C8          4.8257   -1.8693    0.4536 C.3     1  LIG1        0.0000
      9 C9          4.3707   -2.8275    1.5460 C.3     1  LIG1        0.0000
     10 C10         3.3481   -2.4197    2.3926 C.3     1  LIG1        0.0000
     11 C11         2.8641   -3.2714    3.3774 C.3     1  LIG1        0.0000
     12 C12         3.4363   -4.5324    3.5133 C.3     1  LIG1        0.0000
     13 C13         4.4767   -4.9373    2.6822 C.3     1  LIG1        0.0000
     14 C14         4.9503   -4.0811    1.6942 C.3     1  LIG1        0.0000
     15 N15         5.9958   -4.5231    0.8704 N.pl3   1  LIG1        0.0000
     16 S16         5.9045   -5.9824    0.1500 S.O2    1  LIG1        0.0000
     17 C17         4.6336   -5.9410   -1.1380 C.3     1  LIG1        0.0000
     18 O18         7.1769   -6.3062   -0.4413 O.2     1  LIG1        0.0000
     19 O19         5.5626   -6.9808    1.1298 O.2     1  LIG1        0.0000
     20 C20         2.7382   -1.0274    2.2916 C.3     1  LIG1        0.0000
     21 C21         1.0152    3.3993    1.0000 C.3     1  LIG1        0.0000
     22 C22         1.3504    3.9771   -0.2205 C.3     1  LIG1        0.0000
     23 C23         2.0450    5.1820   -0.2523 C.3     1  LIG1        0.0000
     24 C24         2.4062    5.8085    0.9360 C.3     1  LIG1        0.0000
     25 C25         2.0724    5.2300    2.1570 C.3     1  LIG1        0.0000
     26 C26         1.3769    4.0257    2.1892 C.3     1  LIG1        0.0000
     27 C27         1.0289    3.4232    3.4615 C.2     1  LIG1        0.0000
     28 O28         0.4290    2.3842    3.4894 O.2     1  LIG1        0.0000
     29 N29         1.3851    4.0401    4.6318 N.am    1  LIG1        0.0000
     30 C30         1.0324    3.4293    5.9216 C.3     1  LIG1        0.0000
     31 C31        -0.3295    3.9351    6.3658 C.2     1  LIG1        0.0000
     32 C32        -1.5174    3.3459    6.0551 C.2     1  LIG1        0.0000
     33 C33        -2.4985    4.1551    6.6719 C.2     1  LIG1        0.0000
     34 C34        -1.8326    5.1640    7.2997 C.2     1  LIG1        0.0000
     35 O35        -0.5440    5.0022    7.1023 O.2     1  LIG1        0.0000
     36 H          -1.4883    1.2436    1.0000 H       1  LIG1        0.0000
     37 H          -1.4883    2.6579    1.8165 H       1  LIG1        0.0000
     38 H          -1.4883    2.6579    0.1835 H       1  LIG1        0.0000
     39 H           2.8533    1.4714    0.1835 H       1  LIG1        0.0000
     40 H           2.8533    1.4714    1.8165 H       1  LIG1        0.0000
     41 H           4.9411   -0.1285    1.6040 H       1  LIG1        0.0000
     42 H           4.7075    0.1706    0.0157 H       1  LIG1        0.0000
     43 H           4.3874   -2.1280   -0.4072 H       1  LIG1        0.0000
     44 H           5.8186   -1.9377    0.3558 H       1  LIG1        0.0000
     45 H           2.1180   -2.9835    3.9778 H       1  LIG1        0.0000
     46 H           3.0956   -5.1559    4.2170 H       1  LIG1        0.0000
     47 H           4.8836   -5.8437    2.7955 H       1  LIG1        0.0000
     48 H           6.7972   -3.9429    0.7249 H       1  LIG1        0.0000
     49 H           3.7500   -5.7162   -0.7274 H       1  LIG1        0.0000
     50 H           4.8710   -5.2477   -1.8184 H       1  LIG1        0.0000
     51 H           4.5776   -6.8363   -1.5800 H       1  LIG1        0.0000
     52 H           1.7480   -1.1019    2.4104 H       1  LIG1        0.0000
     53 H           3.1192   -0.4570    3.0192 H       1  LIG1        0.0000
     54 H           1.0919    3.5262   -1.0749 H       1  LIG1        0.0000
     55 H           2.2848    5.5978   -1.1296 H       1  LIG1        0.0000
     56 H           2.9056    6.6746    0.9129 H       1  LIG1        0.0000
     57 H           2.3326    5.6802    3.0112 H       1  LIG1        0.0000
     58 H           1.8850    4.9058    4.6086 H       1  LIG1        0.0000
     59 H           1.7189    3.6755    6.6058 H       1  LIG1        0.0000
     60 H           1.0024    2.4347    5.8223 H       1  LIG1        0.0000
     61 H          -1.6636    2.5207    5.5095 H       1  LIG1        0.0000
     62 H          -3.4883    4.0144    6.6514 H       1  LIG1        0.0000
     63 H          -2.2543    5.9042    7.8235 H       1  LIG1        0.0000
@<TRIPOS>BOND
     1     1     2    1
     2     2     3   am
     3     3     4    2
     4     3     5    1
     5     5     6    1
     6     6     7    1
     7     7     8    1
     8     8     9    1
     9     9    10   ar
    10    10    11   ar
    11    11    12   ar
    12    12    13   ar
    13    13    14   ar
    14    14     9   ar
    15    14    15    1
    16    15    16    1
    17    16    17    1
    18    16    18    2
    19    16    19    2
    20    10    20    1
    21    20     6    1
    22     2    21    1
    23    21    22   ar
    24    22    23   ar
    25    23    24   ar
    26    24    25   ar
    27    25    26   ar
    28    26    21   ar
    29    26    27    1
    30    27    28    2
    31    27    29   am
    32    29    30    1
    33    30    31    1
    34    31    32    2
    35    32    33    1
    36    33    34    2
    37    34    35    1
    38    35    31    1
    39     1    36    1
    40     1    37    1
    41     1    38    1
    42     5    39    1
    43     5    40    1
    44     7    41    1
    45     7    42    1
    46     8    43    1
    47     8    44    1
    48    11    45    1
    49    12    46    1
    50    13    47    1
    51    15    48    1
    52    17    49    1
    53    17    50    1
    54    17    51    1
    55    20    52    1
    56    20    53    1
    57    22    54    1
    58    23    55    1
    59    24    56    1
    60    25    57    1
    61    29    58    1
    62    30    59    1
    63    30    60    1
    64    32    61    1
    65    33    62    1
    66    34    63    1
