@<TRIPOS>MOLECULE
*****
 63 66 0 0 0
SMALL
USER_CHARGES

@<TRIPOS>ATOM
      1 C1         -1.1550    2.1865    1.0000 C.3     1  LIG1        0.0000
      2 N2          0.3150    2.1865    1.0000 N.am    1  LIG1        0.0000
      3 C3          1.0000    1.0000    1.0000 C.2     1  LIG1        0.0000
      4 O4          0.4000   -0.0392    1.0000 O.2     1  LIG1        0.0000
      5 C5          2.5200    1.0000    1.0000 C.3     1  LIG1        0.0000
      6 N6          3.0108   -0.3882    1.0000 N.3     1  LIG1        0.0000
      7 C7          2.3776   -1.0969   -0.1288 C.3     1  LIG1        0.0000
      8 C8          1.6938   -2.4010    0.2400 C.3     1  LIG1        0.0000
      9 C9          2.6259   -3.1569    1.1601 C.3     1  LIG1        0.0000
     10 C10         3.1394   -2.4308    2.2225 C.3     1  LIG1        0.0000
     11 C11         4.0196   -3.0635    3.0990 C.3     1  LIG1        0.0000
     12 C12         4.3860   -4.3935    2.9143 C.3     1  LIG1        0.0000
     13 C13         3.8584   -5.0988    1.8386 C.3     1  LIG1        0.0000
     14 C14         2.9727   -4.4843    0.9600 C.3     1  LIG1        0.0000
     15 N15         2.4526   -5.2252   -0.1085 N.pl3   1  LIG1        0.0000
     16 S16         1.7931   -6.6913    0.1609 S.O2    1  LIG1        0.0000
     17 C17         0.2302   -6.4952    1.0526 C.3     1  LIG1        0.0000
     18 O18         1.5485   -7.3463   -1.0980 O.2     1  LIG1        0.0000
     19 O19         2.6984   -7.4875    0.9483 O.2     1  LIG1        0.0000
     20 C20         2.7094   -0.9781    2.3209 C.3     1  LIG1        0.0000
     21 C21         1.0152    3.3993    1.0000 C.3     1  LIG1        0.0000
     22 C22         1.3480    3.9784    2.2205 C.3     1  LIG1        0.0000
     23 C23         2.0442    5.1825    2.2523 C.3     1  LIG1        0.0000
     24 C24         2.4062    5.8085    1.0640 C.3     1  LIG1        0.0000
     25 C25         2.0721    5.2302   -0.1570 C.3     1  LIG1        0.0000
     26 C26         1.3769    4.0257   -0.1892 C.3     1  LIG1        0.0000
     27 C27         1.0291    3.4231   -1.4615 C.2     1  LIG1        0.0000
     28 O28         0.4293    2.3841   -1.4894 O.2     1  LIG1        0.0000
     29 N29         1.3852    4.0400   -2.6318 N.am    1  LIG1        0.0000
     30 C30         1.0326    3.4292   -3.9216 C.3     1  LIG1        0.0000
     31 C31         1.5395    4.3071   -5.0531 C.2     1  LIG1        0.0000
     32 C32         2.7680    4.1991   -5.6309 C.2     1  LIG1        0.0000
     33 C33         2.7966    5.2093   -6.6191 C.2     1  LIG1        0.0000
     34 C34         1.5939    5.8461   -6.5599 C.2     1  LIG1        0.0000
     35 O35         0.8674    5.2829   -5.6214 O.2     1  LIG1        0.0000
     36 H          -1.4883    1.2436    1.0000 H       1  LIG1        0.0000
     37 H          -1.4883    2.6579    1.8165 H       1  LIG1        0.0000
     38 H          -1.4883    2.6579    0.1835 H       1  LIG1        0.0000
     39 H           2.8533    1.4714    0.1835 H       1  LIG1        0.0000
     40 H           2.8533    1.4714    1.8165 H       1  LIG1        0.0000
     41 H           3.0853   -1.2976   -0.8062 H       1  LIG1        0.0000
     42 H           1.6927   -0.4900   -0.5321 H       1  LIG1        0.0000
     43 H           0.8300   -2.2136    0.7076 H       1  LIG1        0.0000
     44 H           1.5168   -2.9390   -0.5842 H       1  LIG1        0.0000
     45 H           4.3940   -2.5534    3.8733 H       1  LIG1        0.0000
     46 H           5.0209   -4.8363    3.5474 H       1  LIG1        0.0000
     47 H           4.1175   -6.0540    1.6957 H       1  LIG1        0.0000
     48 H           2.4859   -4.8549   -1.0368 H       1  LIG1        0.0000
     49 H           0.4001   -6.0403    1.9268 H       1  LIG1        0.0000
     50 H          -0.3984   -5.9422    0.5058 H       1  LIG1        0.0000
     51 H          -0.1744   -7.3946    1.2179 H       1  LIG1        0.0000
     52 H           1.7308   -0.9156    2.5167 H       1  LIG1        0.0000
     53 H           3.2237   -0.5090    3.0389 H       1  LIG1        0.0000
     54 H           1.0868    3.5292    3.0749 H       1  LIG1        0.0000
     55 H           2.2844    5.5980    3.1296 H       1  LIG1        0.0000
     56 H           2.9065    6.6741    1.0871 H       1  LIG1        0.0000
     57 H           2.3318    5.6806   -1.0112 H       1  LIG1        0.0000
     58 H           1.8850    4.9058   -2.6086 H       1  LIG1        0.0000
     59 H           0.0388    3.3407   -3.9879 H       1  LIG1        0.0000
     60 H           1.4530    2.5242   -3.9878 H       1  LIG1        0.0000
     61 H           3.4920    3.5472   -5.4053 H       1  LIG1        0.0000
     62 H           3.5523    5.4162   -7.2404 H       1  LIG1        0.0000
     63 H           1.3112    6.6139   -7.1347 H       1  LIG1        0.0000
@<TRIPOS>BOND
     1     1     2    1
     2     2     3   am
     3     3     4    2
     4     3     5    1
     5     5     6    1
     6     6     7    1
     7     7     8    1
     8     8     9    1
     9     9    10   ar
    10    10    11   ar
    11    11    12   ar
    12    12    13   ar
    13    13    14   ar
    14    14     9   ar
    15    14    15    1
    16    15    16    1
    17    16    17    1
    18    16    18    2
    19    16    19    2
    20    10    20    1
    21    20     6    1
    22     2    21    1
    23    21    22   ar
    24    22    23   ar
    25    23    24   ar
    26    24    25   ar
    27    25    26   ar
    28    26    21   ar
    29    26    27    1
    30    27    28    2
    31    27    29   am
    32    29    30    1
    33    30    31    1
    34    31    32    2
    35    32    33    1
    36    33    34    2
    37    34    35    1
    38    35    31    1
    39     1    36    1
    40     1    37    1
    41     1    38    1
    42     5    39    1
    43     5    40    1
    44     7    41    1
    45     7    42    1
    46     8    43    1
    47     8    44    1
    48    11    45    1
    49    12    46    1
    50    13    47    1
    51    15    48    1
    52    17    49    1
    53    17    50    1
    54    17    51    1
    55    20    52    1
    56    20    53    1
    57    22    54    1
    58    23    55    1
    59    24    56    1
    60    25    57    1
    61    29    58    1
    62    30    59    1
    63    30    60    1
    64    32    61    1
    65    33    62    1
    66    34    63    1
