@<TRIPOS>MOLECULE
*****
 63 66 0 0 0
SMALL
USER_CHARGES

@<TRIPOS>ATOM
      1 C1          1.0500    3.4595    1.0000 C.3     1  LIG1        0.0000
      2 N2          0.3150    2.1865    1.0000 N.am    1  LIG1        0.0000
      3 C3          1.0000    1.0000    1.0000 C.2     1  LIG1        0.0000
      4 O4          0.4000   -0.0392    1.0000 O.2     1  LIG1        0.0000
      5 C5          2.5200    1.0000    1.0000 C.3     1  LIG1        0.0000
      6 N6          3.0102   -0.3865    1.0000 N.3     1  LIG1        0.0000
      7 C7          2.7252   -0.9498   -0.3441 C.3     1  LIG1        0.0000
      8 C8          3.9252   -1.5702   -1.0433 C.3     1  LIG1        0.0000
      9 C9          4.5772   -2.4143    0.0406 C.3     1  LIG1        0.0000
     10 C10         4.8303   -1.8350    1.2756 C.3     1  LIG1        0.0000
     11 C11         5.4145   -2.5696    2.2937 C.3     1  LIG1        0.0000
     12 C12         5.7370   -3.9059    2.0838 C.3     1  LIG1        0.0000
     13 C13         5.4742   -4.4973    0.8531 C.3     1  LIG1        0.0000
     14 C14         4.8965   -3.7497   -0.1676 C.3     1  LIG1        0.0000
     15 N15         4.6441   -4.3694   -1.3948 N.pl3   1  LIG1        0.0000
     16 S16         3.8571   -5.7960   -1.4408 S.O2    1  LIG1        0.0000
     17 C17         2.1250   -5.5448   -0.9794 C.3     1  LIG1        0.0000
     18 O18         3.9251   -6.3390   -2.7728 O.2     1  LIG1        0.0000
     19 O19         4.4718   -6.7134   -0.5166 O.2     1  LIG1        0.0000
     20 C20         4.3889   -0.3927    1.4724 C.3     1  LIG1        0.0000
     21 C21        -1.0855    2.1865    1.0000 C.3     1  LIG1        0.0000
     22 C22        -1.7534    2.1878   -0.2205 C.3     1  LIG1        0.0000
     23 C23        -3.1442    2.1869   -0.2523 C.3     1  LIG1        0.0000
     24 C24        -3.8674    2.1864    0.9360 C.3     1  LIG1        0.0000
     25 C25        -3.1995    2.1866    2.1570 C.3     1  LIG1        0.0000
     26 C26        -1.8088    2.1865    2.1892 C.3     1  LIG1        0.0000
     27 C27        -1.1130    2.1864    3.4615 C.2     1  LIG1        0.0000
     28 O28         0.0867    2.1863    3.4894 O.2     1  LIG1        0.0000
     29 N29        -1.8253    2.1864    4.6318 N.am    1  LIG1        0.0000
     30 C30        -1.1200    2.1863    5.9216 C.3     1  LIG1        0.0000
     31 C31        -2.1338    2.1863    7.0531 C.2     1  LIG1        0.0000
     32 C32        -2.6545    1.0684    7.6309 C.2     1  LIG1        0.0000
     33 C33        -3.5436    1.5488    8.6191 C.2     1  LIG1        0.0000
     34 C34        -3.4937    2.9087    8.5599 C.2     1  LIG1        0.0000
     35 O35        -2.6428    3.2563    7.6214 O.2     1  LIG1        0.0000
     36 H           2.0332    3.2768    1.0000 H       1  LIG1        0.0000
     37 H           0.8084    3.9839    0.1835 H       1  LIG1        0.0000
     38 H           0.8084    3.9839    1.8165 H       1  LIG1        0.0000
     39 H           2.8533    1.4714    0.1835 H       1  LIG1        0.0000
     40 H           2.8533    1.4714    1.8165 H       1  LIG1        0.0000
     41 H           2.3749   -0.2129   -0.9223 H       1  LIG1        0.0000
     42 H           2.0245   -1.6561   -0.2433 H       1  LIG1        0.0000
     43 H           3.6347   -2.1397   -1.8123 H       1  LIG1        0.0000
     44 H           4.5522   -0.8632   -1.3703 H       1  LIG1        0.0000
     45 H           5.6039   -2.1405    3.1769 H       1  LIG1        0.0000
     46 H           6.1573   -4.4408    2.8169 H       1  LIG1        0.0000
     47 H           5.7004   -5.4595    0.7020 H       1  LIG1        0.0000
     48 H           4.9464   -3.9375   -2.2445 H       1  LIG1        0.0000
     49 H           2.0778   -5.1677   -0.0544 H       1  LIG1        0.0000
     50 H           1.6981   -4.9077   -1.6212 H       1  LIG1        0.0000
     51 H           1.6422   -6.4200   -1.0076 H       1  LIG1        0.0000
     52 H           4.4366   -0.1334    2.4370 H       1  LIG1        0.0000
     53 H           4.9540    0.2303    0.9314 H       1  LIG1        0.0000
     54 H          -1.2337    2.1894   -1.0749 H       1  LIG1        0.0000
     55 H          -3.6242    2.1867   -1.1296 H       1  LIG1        0.0000
     56 H          -4.8671    2.1860    0.9129 H       1  LIG1        0.0000
     57 H          -3.7194    2.1869    3.0112 H       1  LIG1        0.0000
     58 H          -2.8250    2.1864    4.6086 H       1  LIG1        0.0000
     59 H          -0.5465    3.0028    5.9879 H       1  LIG1        0.0000
     60 H          -0.5465    1.3698    5.9878 H       1  LIG1        0.0000
     61 H          -2.4520    0.1155    7.4053 H       1  LIG1        0.0000
     62 H          -4.1007    0.9978    9.2404 H       1  LIG1        0.0000
     63 H          -4.0174    3.5374    9.1347 H       1  LIG1        0.0000
@<TRIPOS>BOND
     1     1     2    1
     2     2     3   am
     3     3     4    2
     4     3     5    1
     5     5     6    1
     6     6     7    1
     7     7     8    1
     8     8     9    1
     9     9    10   ar
    10    10    11   ar
    11    11    12   ar
    12    12    13   ar
    13    13    14   ar
    14    14     9   ar
    15    14    15    1
    16    15    16    1
    17    16    17    1
    18    16    18    2
    19    16    19    2
    20    10    20    1
    21    20     6    1
    22     2    21    1
    23    21    22   ar
    24    22    23   ar
    25    23    24   ar
    26    24    25   ar
    27    25    26   ar
    28    26    21   ar
    29    26    27    1
    30    27    28    2
    31    27    29   am
    32    29    30    1
    33    30    31    1
    34    31    32    2
    35    32    33    1
    36    33    34    2
    37    34    35    1
    38    35    31    1
    39     1    36    1
    40     1    37    1
    41     1    38    1
    42     5    39    1
    43     5    40    1
    44     7    41    1
    45     7    42    1
    46     8    43    1
    47     8    44    1
    48    11    45    1
    49    12    46    1
    50    13    47    1
    51    15    48    1
    52    17    49    1
    53    17    50    1
    54    17    51    1
    55    20    52    1
    56    20    53    1
    57    22    54    1
    58    23    55    1
    59    24    56    1
    60    25    57    1
    61    29    58    1
    62    30    59    1
    63    30    60    1
    64    32    61    1
    65    33    62    1
    66    34    63    1
