@<TRIPOS>MOLECULE

  33   35
SMALL
USER_CHARGES
@<TRIPOS>ATOM
   1 C1           0.4916    -0.1419     1.0000 C.2          1    LIG   0.0000
   2 N2           1.0000     1.0000     1.0000 N.2          1    LIG   0.0000
   3 N3           2.3700     1.0000     1.0000 N.pl3        1    LIG   0.0000
   4 C4           3.0701     2.1395     1.4148 C.ar         1    LIG   0.0000
   5 C5           4.1545     2.5904     0.6693 C.ar         1    LIG   0.0000
   6 C6           4.8446     3.7227     1.0891 C.ar         1    LIG   0.0000
   7 C7           4.4482     4.3918     2.2431 C.ar         1    LIG   0.0000
   8 C8           3.3624     3.9340     2.9823 C.ar         1    LIG   0.0000
   9 C9           2.6670     2.8017     2.5698 C.ar         1    LIG   0.0000
  10 C10          3.0701    -0.1395     0.5852 C.ar         1    LIG   0.0000
  11 C11          4.1545    -0.5904     1.3307 C.ar         1    LIG   0.0000
  12 C12          4.8446    -1.7227     0.9109 C.ar         1    LIG   0.0000
  13 C13          4.4482    -2.3918    -0.2431 C.ar         1    LIG   0.0000
  14 C14          3.3624    -1.9340    -0.9823 C.ar         1    LIG   0.0000
  15 C15          2.6670    -0.8017    -0.5698 C.ar         1    LIG   0.0000
  16 C16          1.3442    -1.3155     1.0000 C.2          1    LIG   0.0000
  17 N17          2.3485    -1.5770     1.8006 N.2          1    LIG   0.0000
  18 C18          2.9809    -2.7750     1.5814 C.2          1    LIG   0.0000
  19 C19          2.4989    -3.5500     0.5719 C.2          1    LIG   0.0000
  20 S20          1.2029    -2.6402    -0.0642 S.3          1    LIG   0.0000
  21 H           -0.5029    -0.2465     1.0000 H            1    LIG   0.0000
  22 H            4.4348     2.1058    -0.1593 H            1    LIG   0.0000
  23 H            5.6259     4.0562     0.5614 H            1    LIG   0.0000
  24 H            4.9463     5.2056     2.5424 H            1    LIG   0.0000
  25 H            3.0815     4.4188     3.8106 H            1    LIG   0.0000
  26 H            1.8862     2.4677     3.0977 H            1    LIG   0.0000
  27 H            4.4348    -0.1058     2.1593 H            1    LIG   0.0000
  28 H            5.6259    -2.0562     1.4386 H            1    LIG   0.0000
  29 H            4.9463    -3.2056    -0.5424 H            1    LIG   0.0000
  30 H            3.0815    -2.4188    -1.8106 H            1    LIG   0.0000
  31 H            1.8862    -0.4677    -1.0977 H            1    LIG   0.0000
  32 H            3.7597    -3.0650     2.1375 H            1    LIG   0.0000
  33 H            2.8280    -4.4454     0.2723 H            1    LIG   0.0000
@<TRIPOS>BOND
   1        1        2 2
   2        2        3 1
   3        3        4 1
   4        4        5 ar
   5        5        6 ar
   6        6        7 ar
   7        7        8 ar
   8        8        9 ar
   9        9        4 ar
  10        3       10 1
  11       10       11 ar
  12       11       12 ar
  13       12       13 ar
  14       13       14 ar
  15       14       15 ar
  16       15       10 ar
  17        1       16 1
  18       16       17 2
  19       17       18 1
  20       18       19 2
  21       19       20 1
  22       20       16 1
  23        1       21 1
  24        5       22 1
  25        6       23 1
  26        7       24 1
  27        8       25 1
  28        9       26 1
  29       11       27 1
  30       12       28 1
  31       13       29 1
  32       14       30 1
  33       15       31 1
  34       18       32 1
  35       19       33 1

@<TRIPOS>MOLECULE

  33   35
SMALL
USER_CHARGES
@<TRIPOS>ATOM
   1 C1           0.4916    -0.1419     1.0000 C.2          1    LIG   0.0000
   2 N2           1.0000     1.0000     1.0000 N.2          1    LIG   0.0000
   3 N3           2.3700     1.0000     1.0000 N.pl3        1    LIG   0.0000
   4 C4           3.0701     2.1395     1.4148 C.ar         1    LIG   0.0000
   5 C5           4.4254     2.0441     1.7130 C.ar         1    LIG   0.0000
   6 C6           5.1128     3.1810     2.1249 C.ar         1    LIG   0.0000
   7 C7           4.4450     4.3969     2.2347 C.ar         1    LIG   0.0000
   8 C8           3.0895     4.4831     1.9342 C.ar         1    LIG   0.0000
   9 C9           2.3943     3.3507     1.5221 C.ar         1    LIG   0.0000
  10 C10          3.0701    -0.1395     0.5852 C.ar         1    LIG   0.0000
  11 C11          4.1545    -0.5904     1.3307 C.ar         1    LIG   0.0000
  12 C12          4.8446    -1.7227     0.9109 C.ar         1    LIG   0.0000
  13 C13          4.4482    -2.3918    -0.2431 C.ar         1    LIG   0.0000
  14 C14          3.3624    -1.9340    -0.9823 C.ar         1    LIG   0.0000
  15 C15          2.6670    -0.8017    -0.5698 C.ar         1    LIG   0.0000
  16 C16          1.3442    -1.3155     1.0000 C.2          1    LIG   0.0000
  17 N17          2.3485    -1.5770     1.8006 N.2          1    LIG   0.0000
  18 C18          2.9809    -2.7750     1.5814 C.2          1    LIG   0.0000
  19 C19          2.4989    -3.5500     0.5719 C.2          1    LIG   0.0000
  20 S20          1.2029    -2.6402    -0.0642 S.3          1    LIG   0.0000
  21 H           -0.5029    -0.2465     1.0000 H            1    LIG   0.0000
  22 H            4.9004     1.1678     1.6320 H            1    LIG   0.0000
  23 H            6.0873     3.1245     2.3422 H            1    LIG   0.0000
  24 H            4.9418     5.2125     2.5311 H            1    LIG   0.0000
  25 H            2.6146     5.3595     2.0144 H            1    LIG   0.0000
  26 H            1.4197     3.4067     1.3054 H            1    LIG   0.0000
  27 H            4.4348    -0.1058     2.1593 H            1    LIG   0.0000
  28 H            5.6259    -2.0562     1.4386 H            1    LIG   0.0000
  29 H            4.9463    -3.2056    -0.5424 H            1    LIG   0.0000
  30 H            3.0815    -2.4188    -1.8106 H            1    LIG   0.0000
  31 H            1.8862    -0.4677    -1.0977 H            1    LIG   0.0000
  32 H            3.7597    -3.0650     2.1375 H            1    LIG   0.0000
  33 H            2.8280    -4.4454     0.2723 H            1    LIG   0.0000
@<TRIPOS>BOND
   1        1        2 2
   2        2        3 1
   3        3        4 1
   4        4        5 ar
   5        5        6 ar
   6        6        7 ar
   7        7        8 ar
   8        8        9 ar
   9        9        4 ar
  10        3       10 1
  11       10       11 ar
  12       11       12 ar
  13       12       13 ar
  14       13       14 ar
  15       14       15 ar
  16       15       10 ar
  17        1       16 1
  18       16       17 2
  19       17       18 1
  20       18       19 2
  21       19       20 1
  22       20       16 1
  23        1       21 1
  24        5       22 1
  25        6       23 1
  26        7       24 1
  27        8       25 1
  28        9       26 1
  29       11       27 1
  30       12       28 1
  31       13       29 1
  32       14       30 1
  33       15       31 1
  34       18       32 1
  35       19       33 1

@<TRIPOS>MOLECULE

  33   35
SMALL
USER_CHARGES
@<TRIPOS>ATOM
   1 C1           0.4916    -0.1419     1.0000 C.2          1    LIG   0.0000
   2 N2           1.0000     1.0000     1.0000 N.2          1    LIG   0.0000
   3 N3           2.3700     1.0000     1.0000 N.pl3        1    LIG   0.0000
   4 C4           3.0701     2.1395     1.4148 C.ar         1    LIG   0.0000
   5 C5           3.6852     2.1534     2.6623 C.ar         1    LIG   0.0000
   6 C6           4.3779     3.2898     3.0664 C.ar         1    LIG   0.0000
   7 C7           4.4505     4.3966     2.2261 C.ar         1    LIG   0.0000
   8 C8           3.8326     4.3739     0.9800 C.ar         1    LIG   0.0000
   9 C9           3.1371     3.2414     0.5683 C.ar         1    LIG   0.0000
  10 C10          3.0701    -0.1395     0.5852 C.ar         1    LIG   0.0000
  11 C11          4.1545    -0.5904     1.3307 C.ar         1    LIG   0.0000
  12 C12          4.8446    -1.7227     0.9109 C.ar         1    LIG   0.0000
  13 C13          4.4482    -2.3918    -0.2431 C.ar         1    LIG   0.0000
  14 C14          3.3624    -1.9340    -0.9823 C.ar         1    LIG   0.0000
  15 C15          2.6670    -0.8017    -0.5698 C.ar         1    LIG   0.0000
  16 C16          1.3442    -1.3155     1.0000 C.2          1    LIG   0.0000
  17 N17          2.3485    -1.5770     1.8006 N.2          1    LIG   0.0000
  18 C18          2.9809    -2.7750     1.5814 C.2          1    LIG   0.0000
  19 C19          2.4989    -3.5500     0.5719 C.2          1    LIG   0.0000
  20 S20          1.2029    -2.6402    -0.0642 S.3          1    LIG   0.0000
  21 H           -0.5029    -0.2465     1.0000 H            1    LIG   0.0000
  22 H            3.6300     1.3550     3.2620 H            1    LIG   0.0000
  23 H            4.8239     3.3115     3.9612 H            1    LIG   0.0000
  24 H            4.9493     5.2122     2.5193 H            1    LIG   0.0000
  25 H            3.8883     5.1718     0.3799 H            1    LIG   0.0000
  26 H            2.6904     3.2198    -0.3261 H            1    LIG   0.0000
  27 H            4.4348    -0.1058     2.1593 H            1    LIG   0.0000
  28 H            5.6259    -2.0562     1.4386 H            1    LIG   0.0000
  29 H            4.9463    -3.2056    -0.5424 H            1    LIG   0.0000
  30 H            3.0815    -2.4188    -1.8106 H            1    LIG   0.0000
  31 H            1.8862    -0.4677    -1.0977 H            1    LIG   0.0000
  32 H            3.7597    -3.0650     2.1375 H            1    LIG   0.0000
  33 H            2.8280    -4.4454     0.2723 H            1    LIG   0.0000
@<TRIPOS>BOND
   1        1        2 2
   2        2        3 1
   3        3        4 1
   4        4        5 ar
   5        5        6 ar
   6        6        7 ar
   7        7        8 ar
   8        8        9 ar
   9        9        4 ar
  10        3       10 1
  11       10       11 ar
  12       11       12 ar
  13       12       13 ar
  14       13       14 ar
  15       14       15 ar
  16       15       10 ar
  17        1       16 1
  18       16       17 2
  19       17       18 1
  20       18       19 2
  21       19       20 1
  22       20       16 1
  23        1       21 1
  24        5       22 1
  25        6       23 1
  26        7       24 1
  27        8       25 1
  28        9       26 1
  29       11       27 1
  30       12       28 1
  31       13       29 1
  32       14       30 1
  33       15       31 1
  34       18       32 1
  35       19       33 1

@<TRIPOS>MOLECULE

  33   35
SMALL
USER_CHARGES
@<TRIPOS>ATOM
   1 C1           0.4916    -0.1419     1.0000 C.2          1    LIG   0.0000
   2 N2           1.0000     1.0000     1.0000 N.2          1    LIG   0.0000
   3 N3           2.3700     1.0000     1.0000 N.pl3        1    LIG   0.0000
   4 C4           3.0701     2.1395     0.5852 C.ar         1    LIG   0.0000
   5 C5           3.6852     2.1534    -0.6623 C.ar         1    LIG   0.0000
   6 C6           4.3792     3.2892    -1.0658 C.ar         1    LIG   0.0000
   7 C7           4.4524     4.3957    -0.2251 C.ar         1    LIG   0.0000
   8 C8           3.8340     4.3732     1.0207 C.ar         1    LIG   0.0000
   9 C9           3.1385     3.2408     1.4323 C.ar         1    LIG   0.0000
  10 C10          3.0701    -0.1395     1.4148 C.ar         1    LIG   0.0000
  11 C11          4.1545    -0.5904     0.6693 C.ar         1    LIG   0.0000
  12 C12          4.8437    -1.7236     1.0883 C.ar         1    LIG   0.0000
  13 C13          4.4468    -2.3931     2.2418 C.ar         1    LIG   0.0000
  14 C14          3.3613    -1.9350     2.9814 C.ar         1    LIG   0.0000
  15 C15          2.6661    -0.8027     2.5689 C.ar         1    LIG   0.0000
  16 C16          1.3442    -1.3155     1.0000 C.2          1    LIG   0.0000
  17 N17          1.3892    -2.2739     1.8929 N.2          1    LIG   0.0000
  18 C18          2.2907    -3.2764     1.6370 C.2          1    LIG   0.0000
  19 C19          3.0262    -3.1669     0.4972 C.2          1    LIG   0.0000
  20 S20          2.4873    -1.7071    -0.2031 S.3          1    LIG   0.0000
  21 H           -0.5029    -0.2465     1.0000 H            1    LIG   0.0000
  22 H            3.6291     1.3554    -1.2625 H            1    LIG   0.0000
  23 H            4.8256     3.3108    -1.9604 H            1    LIG   0.0000
  24 H            4.9520     5.2110    -0.5180 H            1    LIG   0.0000
  25 H            3.8895     5.1713     1.6207 H            1    LIG   0.0000
  26 H            2.6926     3.2188     2.3272 H            1    LIG   0.0000
  27 H            4.4355    -0.1052    -0.1588 H            1    LIG   0.0000
  28 H            5.6247    -2.0573     0.5604 H            1    LIG   0.0000
  29 H            4.9443    -3.2075     2.5406 H            1    LIG   0.0000
  30 H            3.0807    -2.4197     3.8098 H            1    LIG   0.0000
  31 H            1.8846    -0.4692     3.0962 H            1    LIG   0.0000
  32 H            2.4021    -4.0513     2.2591 H            1    LIG   0.0000
  33 H            3.7215    -3.7962     0.1503 H            1    LIG   0.0000
@<TRIPOS>BOND
   1        1        2 2
   2        2        3 1
   3        3        4 1
   4        4        5 ar
   5        5        6 ar
   6        6        7 ar
   7        7        8 ar
   8        8        9 ar
   9        9        4 ar
  10        3       10 1
  11       10       11 ar
  12       11       12 ar
  13       12       13 ar
  14       13       14 ar
  15       14       15 ar
  16       15       10 ar
  17        1       16 1
  18       16       17 2
  19       17       18 1
  20       18       19 2
  21       19       20 1
  22       20       16 1
  23        1       21 1
  24        5       22 1
  25        6       23 1
  26        7       24 1
  27        8       25 1
  28        9       26 1
  29       11       27 1
  30       12       28 1
  31       13       29 1
  32       14       30 1
  33       15       31 1
  34       18       32 1
  35       19       33 1

@<TRIPOS>MOLECULE

  33   35
SMALL
USER_CHARGES
@<TRIPOS>ATOM
   1 C1           0.4916    -0.1419     1.0000 C.2          1    LIG   0.0000
   2 N2           1.0000     1.0000     1.0000 N.2          1    LIG   0.0000
   3 N3           2.3700     1.0000     1.0000 N.pl3        1    LIG   0.0000
   4 C4           3.0701     2.1395     0.5852 C.ar         1    LIG   0.0000
   5 C5           3.6852     2.1534    -0.6623 C.ar         1    LIG   0.0000
   6 C6           4.3792     3.2892    -1.0658 C.ar         1    LIG   0.0000
   7 C7           4.4524     4.3957    -0.2251 C.ar         1    LIG   0.0000
   8 C8           3.8340     4.3732     1.0207 C.ar         1    LIG   0.0000
   9 C9           3.1385     3.2408     1.4323 C.ar         1    LIG   0.0000
  10 C10          3.0701    -0.1395     1.4148 C.ar         1    LIG   0.0000
  11 C11          4.1545    -0.5904     0.6693 C.ar         1    LIG   0.0000
  12 C12          4.8437    -1.7236     1.0883 C.ar         1    LIG   0.0000
  13 C13          4.4468    -2.3931     2.2418 C.ar         1    LIG   0.0000
  14 C14          3.3613    -1.9350     2.9814 C.ar         1    LIG   0.0000
  15 C15          2.6661    -0.8027     2.5689 C.ar         1    LIG   0.0000
  16 C16          1.3442    -1.3155     1.0000 C.2          1    LIG   0.0000
  17 N17          2.3608    -1.5680     0.2122 N.2          1    LIG   0.0000
  18 C18          3.0014    -2.7601     0.4399 C.2          1    LIG   0.0000
  19 C19          2.5179    -3.5361     1.4478 C.2          1    LIG   0.0000
  20 S20          1.2029    -2.6402     2.0642 S.3          1    LIG   0.0000
  21 H           -0.5029    -0.2465     1.0000 H            1    LIG   0.0000
  22 H            3.6291     1.3554    -1.2625 H            1    LIG   0.0000
  23 H            4.8256     3.3108    -1.9604 H            1    LIG   0.0000
  24 H            4.9520     5.2110    -0.5180 H            1    LIG   0.0000
  25 H            3.8895     5.1713     1.6207 H            1    LIG   0.0000
  26 H            2.6926     3.2188     2.3272 H            1    LIG   0.0000
  27 H            4.4355    -0.1052    -0.1588 H            1    LIG   0.0000
  28 H            5.6247    -2.0573     0.5604 H            1    LIG   0.0000
  29 H            4.9443    -3.2075     2.5406 H            1    LIG   0.0000
  30 H            3.0807    -2.4197     3.8098 H            1    LIG   0.0000
  31 H            1.8846    -0.4692     3.0962 H            1    LIG   0.0000
  32 H            3.7869    -3.0452    -0.1093 H            1    LIG   0.0000
  33 H            2.8553    -4.4256     1.7560 H            1    LIG   0.0000
@<TRIPOS>BOND
   1        1        2 2
   2        2        3 1
   3        3        4 1
   4        4        5 ar
   5        5        6 ar
   6        6        7 ar
   7        7        8 ar
   8        8        9 ar
   9        9        4 ar
  10        3       10 1
  11       10       11 ar
  12       11       12 ar
  13       12       13 ar
  14       13       14 ar
  15       14       15 ar
  16       15       10 ar
  17        1       16 1
  18       16       17 2
  19       17       18 1
  20       18       19 2
  21       19       20 1
  22       20       16 1
  23        1       21 1
  24        5       22 1
  25        6       23 1
  26        7       24 1
  27        8       25 1
  28        9       26 1
  29       11       27 1
  30       12       28 1
  31       13       29 1
  32       14       30 1
  33       15       31 1
  34       18       32 1
  35       19       33 1

@<TRIPOS>MOLECULE

  33   35
SMALL
USER_CHARGES
@<TRIPOS>ATOM
   1 C1           0.4916    -0.1419     1.0000 C.2          1    LIG   0.0000
   2 N2           1.0000     1.0000     1.0000 N.2          1    LIG   0.0000
   3 N3           2.3700     1.0000     1.0000 N.pl3        1    LIG   0.0000
   4 C4           3.0701     2.1395     0.5852 C.ar         1    LIG   0.0000
   5 C5           4.4254     2.0441     0.2870 C.ar         1    LIG   0.0000
   6 C6           5.1131     3.1813    -0.1235 C.ar         1    LIG   0.0000
   7 C7           4.4455     4.3973    -0.2325 C.ar         1    LIG   0.0000
   8 C8           3.0899     4.4835     0.0675 C.ar         1    LIG   0.0000
   9 C9           2.3947     3.3510     0.4795 C.ar         1    LIG   0.0000
  10 C10          3.0701    -0.1395     1.4148 C.ar         1    LIG   0.0000
  11 C11          4.1545    -0.5904     0.6693 C.ar         1    LIG   0.0000
  12 C12          4.8437    -1.7236     1.0883 C.ar         1    LIG   0.0000
  13 C13          4.4468    -2.3931     2.2418 C.ar         1    LIG   0.0000
  14 C14          3.3613    -1.9350     2.9814 C.ar         1    LIG   0.0000
  15 C15          2.6661    -0.8027     2.5689 C.ar         1    LIG   0.0000
  16 C16          1.3442    -1.3155     1.0000 C.2          1    LIG   0.0000
  17 N17          1.3892    -2.2739     1.8929 N.2          1    LIG   0.0000
  18 C18          2.2907    -3.2764     1.6370 C.2          1    LIG   0.0000
  19 C19          3.0262    -3.1669     0.4972 C.2          1    LIG   0.0000
  20 S20          2.4873    -1.7071    -0.2031 S.3          1    LIG   0.0000
  21 H           -0.5029    -0.2465     1.0000 H            1    LIG   0.0000
  22 H            4.9001     1.1676     0.3669 H            1    LIG   0.0000
  23 H            6.0877     3.1249    -0.3403 H            1    LIG   0.0000
  24 H            4.9426     5.2132    -0.5280 H            1    LIG   0.0000
  25 H            2.6149     5.3598    -0.0130 H            1    LIG   0.0000
  26 H            1.4203     3.4072     0.6971 H            1    LIG   0.0000
  27 H            4.4355    -0.1052    -0.1588 H            1    LIG   0.0000
  28 H            5.6247    -2.0573     0.5604 H            1    LIG   0.0000
  29 H            4.9443    -3.2075     2.5406 H            1    LIG   0.0000
  30 H            3.0807    -2.4197     3.8098 H            1    LIG   0.0000
  31 H            1.8846    -0.4692     3.0962 H            1    LIG   0.0000
  32 H            2.4021    -4.0513     2.2591 H            1    LIG   0.0000
  33 H            3.7215    -3.7962     0.1503 H            1    LIG   0.0000
@<TRIPOS>BOND
   1        1        2 2
   2        2        3 1
   3        3        4 1
   4        4        5 ar
   5        5        6 ar
   6        6        7 ar
   7        7        8 ar
   8        8        9 ar
   9        9        4 ar
  10        3       10 1
  11       10       11 ar
  12       11       12 ar
  13       12       13 ar
  14       13       14 ar
  15       14       15 ar
  16       15       10 ar
  17        1       16 1
  18       16       17 2
  19       17       18 1
  20       18       19 2
  21       19       20 1
  22       20       16 1
  23        1       21 1
  24        5       22 1
  25        6       23 1
  26        7       24 1
  27        8       25 1
  28        9       26 1
  29       11       27 1
  30       12       28 1
  31       13       29 1
  32       14       30 1
  33       15       31 1
  34       18       32 1
  35       19       33 1

@<TRIPOS>MOLECULE

  33   35
SMALL
USER_CHARGES
@<TRIPOS>ATOM
   1 C1           0.4916    -0.1419     1.0000 C.2          1    LIG   0.0000
   2 N2           1.0000     1.0000     1.0000 N.2          1    LIG   0.0000
   3 N3           2.3700     1.0000     1.0000 N.pl3        1    LIG   0.0000
   4 C4           3.0701     2.1395     0.5852 C.ar         1    LIG   0.0000
   5 C5           4.4254     2.0441     0.2870 C.ar         1    LIG   0.0000
   6 C6           5.1131     3.1813    -0.1235 C.ar         1    LIG   0.0000
   7 C7           4.4455     4.3973    -0.2325 C.ar         1    LIG   0.0000
   8 C8           3.0899     4.4835     0.0675 C.ar         1    LIG   0.0000
   9 C9           2.3947     3.3510     0.4795 C.ar         1    LIG   0.0000
  10 C10          3.0701    -0.1395     1.4148 C.ar         1    LIG   0.0000
  11 C11          4.1545    -0.5904     0.6693 C.ar         1    LIG   0.0000
  12 C12          4.8437    -1.7236     1.0883 C.ar         1    LIG   0.0000
  13 C13          4.4468    -2.3931     2.2418 C.ar         1    LIG   0.0000
  14 C14          3.3613    -1.9350     2.9814 C.ar         1    LIG   0.0000
  15 C15          2.6661    -0.8027     2.5689 C.ar         1    LIG   0.0000
  16 C16          1.3442    -1.3155     1.0000 C.2          1    LIG   0.0000
  17 N17          2.3608    -1.5680     0.2122 N.2          1    LIG   0.0000
  18 C18          3.0014    -2.7601     0.4399 C.2          1    LIG   0.0000
  19 C19          2.5179    -3.5361     1.4478 C.2          1    LIG   0.0000
  20 S20          1.2029    -2.6402     2.0642 S.3          1    LIG   0.0000
  21 H           -0.5029    -0.2465     1.0000 H            1    LIG   0.0000
  22 H            4.9001     1.1676     0.3669 H            1    LIG   0.0000
  23 H            6.0877     3.1249    -0.3403 H            1    LIG   0.0000
  24 H            4.9426     5.2132    -0.5280 H            1    LIG   0.0000
  25 H            2.6149     5.3598    -0.0130 H            1    LIG   0.0000
  26 H            1.4203     3.4072     0.6971 H            1    LIG   0.0000
  27 H            4.4355    -0.1052    -0.1588 H            1    LIG   0.0000
  28 H            5.6247    -2.0573     0.5604 H            1    LIG   0.0000
  29 H            4.9443    -3.2075     2.5406 H            1    LIG   0.0000
  30 H            3.0807    -2.4197     3.8098 H            1    LIG   0.0000
  31 H            1.8846    -0.4692     3.0962 H            1    LIG   0.0000
  32 H            3.7869    -3.0452    -0.1093 H            1    LIG   0.0000
  33 H            2.8553    -4.4256     1.7560 H            1    LIG   0.0000
@<TRIPOS>BOND
   1        1        2 2
   2        2        3 1
   3        3        4 1
   4        4        5 ar
   5        5        6 ar
   6        6        7 ar
   7        7        8 ar
   8        8        9 ar
   9        9        4 ar
  10        3       10 1
  11       10       11 ar
  12       11       12 ar
  13       12       13 ar
  14       13       14 ar
  15       14       15 ar
  16       15       10 ar
  17        1       16 1
  18       16       17 2
  19       17       18 1
  20       18       19 2
  21       19       20 1
  22       20       16 1
  23        1       21 1
  24        5       22 1
  25        6       23 1
  26        7       24 1
  27        8       25 1
  28        9       26 1
  29       11       27 1
  30       12       28 1
  31       13       29 1
  32       14       30 1
  33       15       31 1
  34       18       32 1
  35       19       33 1

@<TRIPOS>MOLECULE

  33   35
SMALL
USER_CHARGES
@<TRIPOS>ATOM
   1 C1           0.4916    -0.1419     1.0000 C.2          1    LIG   0.0000
   2 N2           1.0000     1.0000     1.0000 N.2          1    LIG   0.0000
   3 N3           2.3700     1.0000     1.0000 N.pl3        1    LIG   0.0000
   4 C4           3.0701     2.1395     0.5852 C.ar         1    LIG   0.0000
   5 C5           4.1545     2.5904     1.3307 C.ar         1    LIG   0.0000
   6 C6           4.8437     3.7236     0.9117 C.ar         1    LIG   0.0000
   7 C7           4.4468     4.3931    -0.2418 C.ar         1    LIG   0.0000
   8 C8           3.3613     3.9350    -0.9814 C.ar         1    LIG   0.0000
   9 C9           2.6661     2.8027    -0.5689 C.ar         1    LIG   0.0000
  10 C10          3.0701    -0.1395     1.4148 C.ar         1    LIG   0.0000
  11 C11          4.1545    -0.5904     0.6693 C.ar         1    LIG   0.0000
  12 C12          4.8437    -1.7236     1.0883 C.ar         1    LIG   0.0000
  13 C13          4.4468    -2.3931     2.2418 C.ar         1    LIG   0.0000
  14 C14          3.3613    -1.9350     2.9814 C.ar         1    LIG   0.0000
  15 C15          2.6661    -0.8027     2.5689 C.ar         1    LIG   0.0000
  16 C16          1.3442    -1.3155     1.0000 C.2          1    LIG   0.0000
  17 N17          1.3892    -2.2739     1.8929 N.2          1    LIG   0.0000
  18 C18          2.2907    -3.2764     1.6370 C.2          1    LIG   0.0000
  19 C19          3.0262    -3.1669     0.4972 C.2          1    LIG   0.0000
  20 S20          2.4873    -1.7071    -0.2031 S.3          1    LIG   0.0000
  21 H           -0.5029    -0.2465     1.0000 H            1    LIG   0.0000
  22 H            4.4355     2.1052     2.1588 H            1    LIG   0.0000
  23 H            5.6247     4.0573     1.4396 H            1    LIG   0.0000
  24 H            4.9443     5.2075    -0.5406 H            1    LIG   0.0000
  25 H            3.0807     4.4197    -1.8098 H            1    LIG   0.0000
  26 H            1.8846     2.4692    -1.0962 H            1    LIG   0.0000
  27 H            4.4355    -0.1052    -0.1588 H            1    LIG   0.0000
  28 H            5.6247    -2.0573     0.5604 H            1    LIG   0.0000
  29 H            4.9443    -3.2075     2.5406 H            1    LIG   0.0000
  30 H            3.0807    -2.4197     3.8098 H            1    LIG   0.0000
  31 H            1.8846    -0.4692     3.0962 H            1    LIG   0.0000
  32 H            2.4021    -4.0513     2.2591 H            1    LIG   0.0000
  33 H            3.7215    -3.7962     0.1503 H            1    LIG   0.0000
@<TRIPOS>BOND
   1        1        2 2
   2        2        3 1
   3        3        4 1
   4        4        5 ar
   5        5        6 ar
   6        6        7 ar
   7        7        8 ar
   8        8        9 ar
   9        9        4 ar
  10        3       10 1
  11       10       11 ar
  12       11       12 ar
  13       12       13 ar
  14       13       14 ar
  15       14       15 ar
  16       15       10 ar
  17        1       16 1
  18       16       17 2
  19       17       18 1
  20       18       19 2
  21       19       20 1
  22       20       16 1
  23        1       21 1
  24        5       22 1
  25        6       23 1
  26        7       24 1
  27        8       25 1
  28        9       26 1
  29       11       27 1
  30       12       28 1
  31       13       29 1
  32       14       30 1
  33       15       31 1
  34       18       32 1
  35       19       33 1

@<TRIPOS>MOLECULE

  33   35
SMALL
USER_CHARGES
@<TRIPOS>ATOM
   1 C1           0.4916    -0.1419     1.0000 C.2          1    LIG   0.0000
   2 N2           1.0000     1.0000     1.0000 N.2          1    LIG   0.0000
   3 N3           2.3700     1.0000     1.0000 N.pl3        1    LIG   0.0000
   4 C4           3.0701     2.1395     0.5852 C.ar         1    LIG   0.0000
   5 C5           4.1545     2.5904     1.3307 C.ar         1    LIG   0.0000
   6 C6           4.8437     3.7236     0.9117 C.ar         1    LIG   0.0000
   7 C7           4.4468     4.3931    -0.2418 C.ar         1    LIG   0.0000
   8 C8           3.3613     3.9350    -0.9814 C.ar         1    LIG   0.0000
   9 C9           2.6661     2.8027    -0.5689 C.ar         1    LIG   0.0000
  10 C10          3.0701    -0.1395     1.4148 C.ar         1    LIG   0.0000
  11 C11          4.1545    -0.5904     0.6693 C.ar         1    LIG   0.0000
  12 C12          4.8437    -1.7236     1.0883 C.ar         1    LIG   0.0000
  13 C13          4.4468    -2.3931     2.2418 C.ar         1    LIG   0.0000
  14 C14          3.3613    -1.9350     2.9814 C.ar         1    LIG   0.0000
  15 C15          2.6661    -0.8027     2.5689 C.ar         1    LIG   0.0000
  16 C16          1.3442    -1.3155     1.0000 C.2          1    LIG   0.0000
  17 N17          2.3608    -1.5680     0.2122 N.2          1    LIG   0.0000
  18 C18          3.0014    -2.7601     0.4399 C.2          1    LIG   0.0000
  19 C19          2.5179    -3.5361     1.4478 C.2          1    LIG   0.0000
  20 S20          1.2029    -2.6402     2.0642 S.3          1    LIG   0.0000
  21 H           -0.5029    -0.2465     1.0000 H            1    LIG   0.0000
  22 H            4.4355     2.1052     2.1588 H            1    LIG   0.0000
  23 H            5.6247     4.0573     1.4396 H            1    LIG   0.0000
  24 H            4.9443     5.2075    -0.5406 H            1    LIG   0.0000
  25 H            3.0807     4.4197    -1.8098 H            1    LIG   0.0000
  26 H            1.8846     2.4692    -1.0962 H            1    LIG   0.0000
  27 H            4.4355    -0.1052    -0.1588 H            1    LIG   0.0000
  28 H            5.6247    -2.0573     0.5604 H            1    LIG   0.0000
  29 H            4.9443    -3.2075     2.5406 H            1    LIG   0.0000
  30 H            3.0807    -2.4197     3.8098 H            1    LIG   0.0000
  31 H            1.8846    -0.4692     3.0962 H            1    LIG   0.0000
  32 H            3.7869    -3.0452    -0.1093 H            1    LIG   0.0000
  33 H            2.8553    -4.4256     1.7560 H            1    LIG   0.0000
@<TRIPOS>BOND
   1        1        2 2
   2        2        3 1
   3        3        4 1
   4        4        5 ar
   5        5        6 ar
   6        6        7 ar
   7        7        8 ar
   8        8        9 ar
   9        9        4 ar
  10        3       10 1
  11       10       11 ar
  12       11       12 ar
  13       12       13 ar
  14       13       14 ar
  15       14       15 ar
  16       15       10 ar
  17        1       16 1
  18       16       17 2
  19       17       18 1
  20       18       19 2
  21       19       20 1
  22       20       16 1
  23        1       21 1
  24        5       22 1
  25        6       23 1
  26        7       24 1
  27        8       25 1
  28        9       26 1
  29       11       27 1
  30       12       28 1
  31       13       29 1
  32       14       30 1
  33       15       31 1
  34       18       32 1
  35       19       33 1

@<TRIPOS>MOLECULE

  33   35
SMALL
USER_CHARGES
@<TRIPOS>ATOM
   1 C1           0.4916    -0.1419     1.0000 C.2          1    LIG   0.0000
   2 N2           1.0000     1.0000     1.0000 N.2          1    LIG   0.0000
   3 N3           2.3700     1.0000     1.0000 N.pl3        1    LIG   0.0000
   4 C4           3.0701     2.0502     1.6063 C.ar         1    LIG   0.0000
   5 C5           4.1545     2.6237     0.9505 C.ar         1    LIG   0.0000
   6 C6           4.8446     3.6659     1.5605 C.ar         1    LIG   0.0000
   7 C7           4.4482     4.1244     2.8132 C.ar         1    LIG   0.0000
   8 C8           3.3624     3.5452     3.4617 C.ar         1    LIG   0.0000
   9 C9           2.6670     2.5018     2.8588 C.ar         1    LIG   0.0000
  10 C10          3.0701    -0.0502     0.3937 C.ar         1    LIG   0.0000
  11 C11          4.1545    -0.6237     1.0495 C.ar         1    LIG   0.0000
  12 C12          4.8446    -1.6659     0.4395 C.ar         1    LIG   0.0000
  13 C13          4.4482    -2.1244    -0.8132 C.ar         1    LIG   0.0000
  14 C14          3.3624    -1.5452    -1.4617 C.ar         1    LIG   0.0000
  15 C15          2.6670    -0.5018    -0.8588 C.ar         1    LIG   0.0000
  16 C16          1.3442    -1.3155     1.0000 C.2          1    LIG   0.0000
  17 N17          1.4031    -2.2638     0.0972 N.2          1    LIG   0.0000
  18 C18          2.3139    -3.2595     0.3465 C.2          1    LIG   0.0000
  19 C19          3.0477    -3.1512     1.4874 C.2          1    LIG   0.0000
  20 S20          2.4873    -1.7071     2.2031 S.3          1    LIG   0.0000
  21 H           -0.5029    -0.2465     1.0000 H            1    LIG   0.0000
  22 H            4.4348     2.2903     0.0503 H            1    LIG   0.0000
  23 H            5.6259     4.0859     1.0988 H            1    LIG   0.0000
  24 H            4.9463     4.8739     3.2492 H            1    LIG   0.0000
  25 H            3.0815     3.8789     4.3616 H            1    LIG   0.0000
  26 H            1.8862     2.0812     3.3207 H            1    LIG   0.0000
  27 H            4.4348    -0.2903     1.9497 H            1    LIG   0.0000
  28 H            5.6259    -2.0859     0.9012 H            1    LIG   0.0000
  29 H            4.9463    -2.8739    -1.2492 H            1    LIG   0.0000
  30 H            3.0815    -1.8789    -2.3616 H            1    LIG   0.0000
  31 H            1.8862    -0.0812    -1.3207 H            1    LIG   0.0000
  32 H            2.4328    -4.0290    -0.2810 H            1    LIG   0.0000
  33 H            3.7524    -3.7738     1.8277 H            1    LIG   0.0000
@<TRIPOS>BOND
   1        1        2 2
   2        2        3 1
   3        3        4 1
   4        4        5 ar
   5        5        6 ar
   6        6        7 ar
   7        7        8 ar
   8        8        9 ar
   9        9        4 ar
  10        3       10 1
  11       10       11 ar
  12       11       12 ar
  13       12       13 ar
  14       13       14 ar
  15       14       15 ar
  16       15       10 ar
  17        1       16 1
  18       16       17 2
  19       17       18 1
  20       18       19 2
  21       19       20 1
  22       20       16 1
  23        1       21 1
  24        5       22 1
  25        6       23 1
  26        7       24 1
  27        8       25 1
  28        9       26 1
  29       11       27 1
  30       12       28 1
  31       13       29 1
  32       14       30 1
  33       15       31 1
  34       18       32 1
  35       19       33 1

@<TRIPOS>MOLECULE

  33   35
SMALL
USER_CHARGES
@<TRIPOS>ATOM
   1 C1           0.4916    -0.1419     1.0000 C.2          1    LIG   0.0000
   2 N2           1.0000     1.0000     1.0000 N.2          1    LIG   0.0000
   3 N3           2.3700     1.0000     1.0000 N.pl3        1    LIG   0.0000
   4 C4           3.0701     2.0502     1.6063 C.ar         1    LIG   0.0000
   5 C5           3.4143     3.1708     0.8576 C.ar         1    LIG   0.0000
   6 C6           4.1104     4.2089     1.4678 C.ar         1    LIG   0.0000
   7 C7           4.4548     4.1200     2.8132 C.ar         1    LIG   0.0000
   8 C8           4.1063     2.9957     3.5544 C.ar         1    LIG   0.0000
   9 C9           3.4106     1.9526     2.9516 C.ar         1    LIG   0.0000
  10 C10          3.0701    -0.0502     0.3937 C.ar         1    LIG   0.0000
  11 C11          4.1545    -0.6237     1.0495 C.ar         1    LIG   0.0000
  12 C12          4.8446    -1.6659     0.4395 C.ar         1    LIG   0.0000
  13 C13          4.4482    -2.1244    -0.8132 C.ar         1    LIG   0.0000
  14 C14          3.3624    -1.5452    -1.4617 C.ar         1    LIG   0.0000
  15 C15          2.6670    -0.5018    -0.8588 C.ar         1    LIG   0.0000
  16 C16          1.3442    -1.3155     1.0000 C.2          1    LIG   0.0000
  17 N17          1.4031    -2.2638     0.0972 N.2          1    LIG   0.0000
  18 C18          2.3139    -3.2595     0.3465 C.2          1    LIG   0.0000
  19 C19          3.0477    -3.1512     1.4874 C.2          1    LIG   0.0000
  20 S20          2.4873    -1.7071     2.2031 S.3          1    LIG   0.0000
  21 H           -0.5029    -0.2465     1.0000 H            1    LIG   0.0000
  22 H            3.1640     3.2294    -0.1088 H            1    LIG   0.0000
  23 H            4.3634     5.0194     0.9396 H            1    LIG   0.0000
  24 H            4.9552     4.8680     3.2492 H            1    LIG   0.0000
  25 H            4.3559     2.9372     4.5210 H            1    LIG   0.0000
  26 H            3.1581     1.1416     3.4794 H            1    LIG   0.0000
  27 H            4.4348    -0.2903     1.9497 H            1    LIG   0.0000
  28 H            5.6259    -2.0859     0.9012 H            1    LIG   0.0000
  29 H            4.9463    -2.8739    -1.2492 H            1    LIG   0.0000
  30 H            3.0815    -1.8789    -2.3616 H            1    LIG   0.0000
  31 H            1.8862    -0.0812    -1.3207 H            1    LIG   0.0000
  32 H            2.4328    -4.0290    -0.2810 H            1    LIG   0.0000
  33 H            3.7524    -3.7738     1.8277 H            1    LIG   0.0000
@<TRIPOS>BOND
   1        1        2 2
   2        2        3 1
   3        3        4 1
   4        4        5 ar
   5        5        6 ar
   6        6        7 ar
   7        7        8 ar
   8        8        9 ar
   9        9        4 ar
  10        3       10 1
  11       10       11 ar
  12       11       12 ar
  13       12       13 ar
  14       13       14 ar
  15       14       15 ar
  16       15       10 ar
  17        1       16 1
  18       16       17 2
  19       17       18 1
  20       18       19 2
  21       19       20 1
  22       20       16 1
  23        1       21 1
  24        5       22 1
  25        6       23 1
  26        7       24 1
  27        8       25 1
  28        9       26 1
  29       11       27 1
  30       12       28 1
  31       13       29 1
  32       14       30 1
  33       15       31 1
  34       18       32 1
  35       19       33 1

@<TRIPOS>MOLECULE

  33   35
SMALL
USER_CHARGES
@<TRIPOS>ATOM
   1 C1           0.4916    -0.1419     1.0000 C.2          1    LIG   0.0000
   2 N2           1.0000     1.0000     1.0000 N.2          1    LIG   0.0000
   3 N3           2.3700     1.0000     1.0000 N.pl3        1    LIG   0.0000
   4 C4           3.0701     2.0502     1.6063 C.ar         1    LIG   0.0000
   5 C5           4.4611     2.0430     1.6022 C.ar         1    LIG   0.0000
   6 C6           5.1484     3.0899     2.2075 C.ar         1    LIG   0.0000
   7 C7           4.4449     4.1295     2.8082 C.ar         1    LIG   0.0000
   8 C8           3.0538     4.1287     2.8073 C.ar         1    LIG   0.0000
   9 C9           2.3587     3.0850     2.2047 C.ar         1    LIG   0.0000
  10 C10          3.0701    -0.0502     0.3937 C.ar         1    LIG   0.0000
  11 C11          4.1545    -0.6237     1.0495 C.ar         1    LIG   0.0000
  12 C12          4.8446    -1.6659     0.4395 C.ar         1    LIG   0.0000
  13 C13          4.4482    -2.1244    -0.8132 C.ar         1    LIG   0.0000
  14 C14          3.3624    -1.5452    -1.4617 C.ar         1    LIG   0.0000
  15 C15          2.6670    -0.5018    -0.8588 C.ar         1    LIG   0.0000
  16 C16          1.3442    -1.3155     1.0000 C.2          1    LIG   0.0000
  17 N17          1.4031    -2.2638     0.0972 N.2          1    LIG   0.0000
  18 C18          2.3139    -3.2595     0.3465 C.2          1    LIG   0.0000
  19 C19          3.0477    -3.1512     1.4874 C.2          1    LIG   0.0000
  20 S20          2.4873    -1.7071     2.2031 S.3          1    LIG   0.0000
  21 H           -0.5029    -0.2465     1.0000 H            1    LIG   0.0000
  22 H            4.9615     1.2935     1.1688 H            1    LIG   0.0000
  23 H            6.1483     3.0955     2.2110 H            1    LIG   0.0000
  24 H            4.9418     4.8808     3.2425 H            1    LIG   0.0000
  25 H            2.5533     4.8785     3.2401 H            1    LIG   0.0000
  26 H            1.3587     3.0788     2.2017 H            1    LIG   0.0000
  27 H            4.4348    -0.2903     1.9497 H            1    LIG   0.0000
  28 H            5.6259    -2.0859     0.9012 H            1    LIG   0.0000
  29 H            4.9463    -2.8739    -1.2492 H            1    LIG   0.0000
  30 H            3.0815    -1.8789    -2.3616 H            1    LIG   0.0000
  31 H            1.8862    -0.0812    -1.3207 H            1    LIG   0.0000
  32 H            2.4328    -4.0290    -0.2810 H            1    LIG   0.0000
  33 H            3.7524    -3.7738     1.8277 H            1    LIG   0.0000
@<TRIPOS>BOND
   1        1        2 2
   2        2        3 1
   3        3        4 1
   4        4        5 ar
   5        5        6 ar
   6        6        7 ar
   7        7        8 ar
   8        8        9 ar
   9        9        4 ar
  10        3       10 1
  11       10       11 ar
  12       11       12 ar
  13       12       13 ar
  14       13       14 ar
  15       14       15 ar
  16       15       10 ar
  17        1       16 1
  18       16       17 2
  19       17       18 1
  20       18       19 2
  21       19       20 1
  22       20       16 1
  23        1       21 1
  24        5       22 1
  25        6       23 1
  26        7       24 1
  27        8       25 1
  28        9       26 1
  29       11       27 1
  30       12       28 1
  31       13       29 1
  32       14       30 1
  33       15       31 1
  34       18       32 1
  35       19       33 1

@<TRIPOS>MOLECULE

  33   35
SMALL
USER_CHARGES
@<TRIPOS>ATOM
   1 C1           0.4916    -0.1419     1.0000 C.2          1    LIG   0.0000
   2 N2           1.0000     1.0000     1.0000 N.2          1    LIG   0.0000
   3 N3           2.3700     1.0000     1.0000 N.pl3        1    LIG   0.0000
   4 C4           3.0701     2.0502     1.6063 C.ar         1    LIG   0.0000
   5 C5           3.6852     1.8472     2.8373 C.ar         1    LIG   0.0000
   6 C6           4.3779     2.8962     3.4326 C.ar         1    LIG   0.0000
   7 C7           4.4505     4.1321     2.7972 C.ar         1    LIG   0.0000
   8 C8           3.8326     4.3261     1.5661 C.ar         1    LIG   0.0000
   9 C9           3.1371     3.2823     0.9641 C.ar         1    LIG   0.0000
  10 C10          3.0701    -0.0502     0.3937 C.ar         1    LIG   0.0000
  11 C11          4.1545    -0.6237     1.0495 C.ar         1    LIG   0.0000
  12 C12          4.8446    -1.6659     0.4395 C.ar         1    LIG   0.0000
  13 C13          4.4482    -2.1244    -0.8132 C.ar         1    LIG   0.0000
  14 C14          3.3624    -1.5452    -1.4617 C.ar         1    LIG   0.0000
  15 C15          2.6670    -0.5018    -0.8588 C.ar         1    LIG   0.0000
  16 C16          1.3442    -1.3155     1.0000 C.2          1    LIG   0.0000
  17 N17          1.4031    -2.2638     0.0972 N.2          1    LIG   0.0000
  18 C18          2.3139    -3.2595     0.3465 C.2          1    LIG   0.0000
  19 C19          3.0477    -3.1512     1.4874 C.2          1    LIG   0.0000
  20 S20          2.4873    -1.7071     2.2031 S.3          1    LIG   0.0000
  21 H           -0.5029    -0.2465     1.0000 H            1    LIG   0.0000
  22 H            3.6300     0.9569     3.2893 H            1    LIG   0.0000
  23 H            4.8239     2.7622     4.3176 H            1    LIG   0.0000
  24 H            4.9493     4.8844     3.2277 H            1    LIG   0.0000
  25 H            3.8883     5.2162     1.1137 H            1    LIG   0.0000
  26 H            2.6904     3.4163     0.0795 H            1    LIG   0.0000
  27 H            4.4348    -0.2903     1.9497 H            1    LIG   0.0000
  28 H            5.6259    -2.0859     0.9012 H            1    LIG   0.0000
  29 H            4.9463    -2.8739    -1.2492 H            1    LIG   0.0000
  30 H            3.0815    -1.8789    -2.3616 H            1    LIG   0.0000
  31 H            1.8862    -0.0812    -1.3207 H            1    LIG   0.0000
  32 H            2.4328    -4.0290    -0.2810 H            1    LIG   0.0000
  33 H            3.7524    -3.7738     1.8277 H            1    LIG   0.0000
@<TRIPOS>BOND
   1        1        2 2
   2        2        3 1
   3        3        4 1
   4        4        5 ar
   5        5        6 ar
   6        6        7 ar
   7        7        8 ar
   8        8        9 ar
   9        9        4 ar
  10        3       10 1
  11       10       11 ar
  12       11       12 ar
  13       12       13 ar
  14       13       14 ar
  15       14       15 ar
  16       15       10 ar
  17        1       16 1
  18       16       17 2
  19       17       18 1
  20       18       19 2
  21       19       20 1
  22       20       16 1
  23        1       21 1
  24        5       22 1
  25        6       23 1
  26        7       24 1
  27        8       25 1
  28        9       26 1
  29       11       27 1
  30       12       28 1
  31       13       29 1
  32       14       30 1
  33       15       31 1
  34       18       32 1
  35       19       33 1

