@<TRIPOS>MOLECULE
*****
 33 35 0 0 0
SMALL
USER_CHARGES

@<TRIPOS>ATOM
      1 C1          0.4916   -0.1419    1.0000 C.2     1  LIG1        0.0000
      2 N2          1.0000    1.0000    1.0000 N.2     1  LIG1        0.0000
      3 N3          2.3700    1.0000    1.0000 N.pl3   1  LIG1        0.0000
      4 C4          3.0701    2.1395    1.4148 C.ar    1  LIG1        0.0000
      5 C5          4.1545    2.5904    0.6693 C.ar    1  LIG1        0.0000
      6 C6          4.8446    3.7227    1.0891 C.ar    1  LIG1        0.0000
      7 C7          4.4482    4.3918    2.2431 C.ar    1  LIG1        0.0000
      8 C8          3.3624    3.9340    2.9823 C.ar    1  LIG1        0.0000
      9 C9          2.6670    2.8017    2.5698 C.ar    1  LIG1        0.0000
     10 C10         3.0701   -0.1395    0.5852 C.ar    1  LIG1        0.0000
     11 C11         4.1545   -0.5904    1.3307 C.ar    1  LIG1        0.0000
     12 C12         4.8446   -1.7227    0.9109 C.ar    1  LIG1        0.0000
     13 C13         4.4482   -2.3918   -0.2431 C.ar    1  LIG1        0.0000
     14 C14         3.3624   -1.9340   -0.9823 C.ar    1  LIG1        0.0000
     15 C15         2.6670   -0.8017   -0.5698 C.ar    1  LIG1        0.0000
     16 C16         1.3442   -1.3155    1.0000 C.2     1  LIG1        0.0000
     17 N17         2.3485   -1.5770    1.8006 N.2     1  LIG1        0.0000
     18 C18         2.9809   -2.7750    1.5814 C.2     1  LIG1        0.0000
     19 C19         2.4989   -3.5500    0.5719 C.2     1  LIG1        0.0000
     20 S20         1.2029   -2.6402   -0.0642 S.3     1  LIG1        0.0000
     21 H          -0.5029   -0.2465    1.0000 H       1  LIG1        0.0000
     22 H           4.4348    2.1058   -0.1593 H       1  LIG1        0.0000
     23 H           5.6259    4.0562    0.5614 H       1  LIG1        0.0000
     24 H           4.9463    5.2056    2.5424 H       1  LIG1        0.0000
     25 H           3.0815    4.4188    3.8106 H       1  LIG1        0.0000
     26 H           1.8862    2.4677    3.0977 H       1  LIG1        0.0000
     27 H           4.4348   -0.1058    2.1593 H       1  LIG1        0.0000
     28 H           5.6259   -2.0562    1.4386 H       1  LIG1        0.0000
     29 H           4.9463   -3.2056   -0.5424 H       1  LIG1        0.0000
     30 H           3.0815   -2.4188   -1.8106 H       1  LIG1        0.0000
     31 H           1.8862   -0.4677   -1.0977 H       1  LIG1        0.0000
     32 H           3.7597   -3.0650    2.1375 H       1  LIG1        0.0000
     33 H           2.8280   -4.4454    0.2723 H       1  LIG1        0.0000
@<TRIPOS>BOND
     1     1     2    2
     2     2     3    1
     3     3     4    1
     4     4     5   ar
     5     5     6   ar
     6     6     7   ar
     7     7     8   ar
     8     8     9   ar
     9     9     4   ar
    10     3    10    1
    11    10    11   ar
    12    11    12   ar
    13    12    13   ar
    14    13    14   ar
    15    14    15   ar
    16    15    10   ar
    17     1    16    1
    18    16    17    2
    19    17    18    1
    20    18    19    2
    21    19    20    1
    22    20    16    1
    23     1    21    1
    24     5    22    1
    25     6    23    1
    26     7    24    1
    27     8    25    1
    28     9    26    1
    29    11    27    1
    30    12    28    1
    31    13    29    1
    32    14    30    1
    33    15    31    1
    34    18    32    1
    35    19    33    1
