@<TRIPOS>MOLECULE
*****
 33 35 0 0 0
SMALL
USER_CHARGES

@<TRIPOS>ATOM
      1 C1          0.4916   -0.1419    1.0000 C.2     1  LIG1        0.0000
      2 N2          1.0000    1.0000    1.0000 N.2     1  LIG1        0.0000
      3 N3          2.3700    1.0000    1.0000 N.pl3   1  LIG1        0.0000
      4 C4          3.0701    2.0502    1.6063 C.ar    1  LIG1        0.0000
      5 C5          3.6852    1.8472    2.8373 C.ar    1  LIG1        0.0000
      6 C6          4.3779    2.8962    3.4326 C.ar    1  LIG1        0.0000
      7 C7          4.4505    4.1321    2.7972 C.ar    1  LIG1        0.0000
      8 C8          3.8326    4.3261    1.5661 C.ar    1  LIG1        0.0000
      9 C9          3.1371    3.2823    0.9641 C.ar    1  LIG1        0.0000
     10 C10         3.0701   -0.0502    0.3937 C.ar    1  LIG1        0.0000
     11 C11         4.1545   -0.6237    1.0495 C.ar    1  LIG1        0.0000
     12 C12         4.8446   -1.6659    0.4395 C.ar    1  LIG1        0.0000
     13 C13         4.4482   -2.1244   -0.8132 C.ar    1  LIG1        0.0000
     14 C14         3.3624   -1.5452   -1.4617 C.ar    1  LIG1        0.0000
     15 C15         2.6670   -0.5018   -0.8588 C.ar    1  LIG1        0.0000
     16 C16         1.3442   -1.3155    1.0000 C.2     1  LIG1        0.0000
     17 N17         1.4031   -2.2638    0.0972 N.2     1  LIG1        0.0000
     18 C18         2.3139   -3.2595    0.3465 C.2     1  LIG1        0.0000
     19 C19         3.0477   -3.1512    1.4874 C.2     1  LIG1        0.0000
     20 S20         2.4873   -1.7071    2.2031 S.3     1  LIG1        0.0000
     21 H          -0.5029   -0.2465    1.0000 H       1  LIG1        0.0000
     22 H           3.6300    0.9569    3.2893 H       1  LIG1        0.0000
     23 H           4.8239    2.7622    4.3176 H       1  LIG1        0.0000
     24 H           4.9493    4.8844    3.2277 H       1  LIG1        0.0000
     25 H           3.8883    5.2162    1.1137 H       1  LIG1        0.0000
     26 H           2.6904    3.4163    0.0795 H       1  LIG1        0.0000
     27 H           4.4348   -0.2903    1.9497 H       1  LIG1        0.0000
     28 H           5.6259   -2.0859    0.9012 H       1  LIG1        0.0000
     29 H           4.9463   -2.8739   -1.2492 H       1  LIG1        0.0000
     30 H           3.0815   -1.8789   -2.3616 H       1  LIG1        0.0000
     31 H           1.8862   -0.0812   -1.3207 H       1  LIG1        0.0000
     32 H           2.4328   -4.0290   -0.2810 H       1  LIG1        0.0000
     33 H           3.7524   -3.7738    1.8277 H       1  LIG1        0.0000
@<TRIPOS>BOND
     1     1     2    2
     2     2     3    1
     3     3     4    1
     4     4     5   ar
     5     5     6   ar
     6     6     7   ar
     7     7     8   ar
     8     8     9   ar
     9     9     4   ar
    10     3    10    1
    11    10    11   ar
    12    11    12   ar
    13    12    13   ar
    14    13    14   ar
    15    14    15   ar
    16    15    10   ar
    17     1    16    1
    18    16    17    2
    19    17    18    1
    20    18    19    2
    21    19    20    1
    22    20    16    1
    23     1    21    1
    24     5    22    1
    25     6    23    1
    26     7    24    1
    27     8    25    1
    28     9    26    1
    29    11    27    1
    30    12    28    1
    31    13    29    1
    32    14    30    1
    33    15    31    1
    34    18    32    1
    35    19    33    1
