@<TRIPOS>MOLECULE
*****
 33 35 0 0 0
SMALL
USER_CHARGES

@<TRIPOS>ATOM
      1 C1          0.4916   -0.1419    1.0000 C.2     1  LIG1        0.0000
      2 N2          1.0000    1.0000    1.0000 N.2     1  LIG1        0.0000
      3 N3          2.3700    1.0000    1.0000 N.pl3   1  LIG1        0.0000
      4 C4          3.0701    2.1395    0.5852 C.ar    1  LIG1        0.0000
      5 C5          4.4254    2.0441    0.2870 C.ar    1  LIG1        0.0000
      6 C6          5.1131    3.1813   -0.1235 C.ar    1  LIG1        0.0000
      7 C7          4.4455    4.3973   -0.2325 C.ar    1  LIG1        0.0000
      8 C8          3.0899    4.4835    0.0675 C.ar    1  LIG1        0.0000
      9 C9          2.3947    3.3510    0.4795 C.ar    1  LIG1        0.0000
     10 C10         3.0701   -0.1395    1.4148 C.ar    1  LIG1        0.0000
     11 C11         4.1545   -0.5904    0.6693 C.ar    1  LIG1        0.0000
     12 C12         4.8437   -1.7236    1.0883 C.ar    1  LIG1        0.0000
     13 C13         4.4468   -2.3931    2.2418 C.ar    1  LIG1        0.0000
     14 C14         3.3613   -1.9350    2.9814 C.ar    1  LIG1        0.0000
     15 C15         2.6661   -0.8027    2.5689 C.ar    1  LIG1        0.0000
     16 C16         1.3442   -1.3155    1.0000 C.2     1  LIG1        0.0000
     17 N17         2.3608   -1.5680    0.2122 N.2     1  LIG1        0.0000
     18 C18         3.0014   -2.7601    0.4399 C.2     1  LIG1        0.0000
     19 C19         2.5179   -3.5361    1.4478 C.2     1  LIG1        0.0000
     20 S20         1.2029   -2.6402    2.0642 S.3     1  LIG1        0.0000
     21 H          -0.5029   -0.2465    1.0000 H       1  LIG1        0.0000
     22 H           4.9001    1.1676    0.3669 H       1  LIG1        0.0000
     23 H           6.0877    3.1249   -0.3403 H       1  LIG1        0.0000
     24 H           4.9426    5.2132   -0.5280 H       1  LIG1        0.0000
     25 H           2.6149    5.3598   -0.0130 H       1  LIG1        0.0000
     26 H           1.4203    3.4072    0.6971 H       1  LIG1        0.0000
     27 H           4.4355   -0.1052   -0.1588 H       1  LIG1        0.0000
     28 H           5.6247   -2.0573    0.5604 H       1  LIG1        0.0000
     29 H           4.9443   -3.2075    2.5406 H       1  LIG1        0.0000
     30 H           3.0807   -2.4197    3.8098 H       1  LIG1        0.0000
     31 H           1.8846   -0.4692    3.0962 H       1  LIG1        0.0000
     32 H           3.7869   -3.0452   -0.1093 H       1  LIG1        0.0000
     33 H           2.8553   -4.4256    1.7560 H       1  LIG1        0.0000
@<TRIPOS>BOND
     1     1     2    2
     2     2     3    1
     3     3     4    1
     4     4     5   ar
     5     5     6   ar
     6     6     7   ar
     7     7     8   ar
     8     8     9   ar
     9     9     4   ar
    10     3    10    1
    11    10    11   ar
    12    11    12   ar
    13    12    13   ar
    14    13    14   ar
    15    14    15   ar
    16    15    10   ar
    17     1    16    1
    18    16    17    2
    19    17    18    1
    20    18    19    2
    21    19    20    1
    22    20    16    1
    23     1    21    1
    24     5    22    1
    25     6    23    1
    26     7    24    1
    27     8    25    1
    28     9    26    1
    29    11    27    1
    30    12    28    1
    31    13    29    1
    32    14    30    1
    33    15    31    1
    34    18    32    1
    35    19    33    1
