@<TRIPOS>MOLECULE

  65   69
SMALL
USER_CHARGES
@<TRIPOS>ATOM
   1 C1           3.7084    -6.1287     3.0954 C.3          1    LIG   0.0000
   2 C2           3.4961    -4.6339     2.9252 C.ar         1    LIG   0.0000
   3 C3           4.0203    -3.7532     3.8652 C.ar         1    LIG   0.0000
   4 C4           3.8304    -2.3833     3.7163 C.ar         1    LIG   0.0000
   5 C5           3.1129    -1.9117     2.6219 C.ar         1    LIG   0.0000
   6 C6           2.9126    -0.4848     2.4622 C.2          1    LIG   0.0000
   7 O7           3.3642     0.2787     3.2703 O.2          1    LIG   0.0000
   8 C8           2.1302     0.0444     1.2705 C.3          1    LIG   0.0000
   9 C9           2.0890     1.5622     1.3753 C.3          1    LIG   0.0000
  10 C10          1.2603     2.2009     0.2690 C.3          1    LIG   0.0000
  11 N11         -0.0269     1.5131     0.0802 N.am         1    LIG   0.0000
  12 C12         -1.1286     2.2716    -0.3251 C.2          1    LIG   0.0000
  13 O13         -1.0097     3.4514    -0.5095 O.2          1    LIG   0.0000
  14 C14         -2.4156     1.6328    -0.5228 C.ar         1    LIG   0.0000
  15 C15         -2.7444     1.1215    -1.7742 C.ar         1    LIG   0.0000
  16 C16         -3.9808     0.5105    -1.9559 C.ar         1    LIG   0.0000
  17 C17         -4.3396    -0.0485    -3.3233 C.3          1    LIG   0.0000
  18 N18         -5.0070     0.9932    -4.1192 N.am         1    LIG   0.0000
  19 C19         -4.3997     1.7711    -5.1024 C.2          1    LIG   0.0000
  20 O20         -3.2319     1.7002    -5.4462 O.2          1    LIG   0.0000
  21 C21         -5.3915     2.6689    -5.6384 C.ar         1    LIG   0.0000
  22 C22         -5.2442     3.6310    -6.6301 C.ar         1    LIG   0.0000
  23 C23         -6.3656     4.3798    -6.9643 C.ar         1    LIG   0.0000
  24 C24         -7.5738     4.1495    -6.3147 C.ar         1    LIG   0.0000
  25 C25         -7.6794     3.1770    -5.3272 C.ar         1    LIG   0.0000
  26 C26         -6.5682     2.4159    -4.9763 C.ar         1    LIG   0.0000
  27 C27         -6.3441     1.3606    -4.0106 C.2          1    LIG   0.0000
  28 O28         -7.1743     0.8872    -3.2530 O.2          1    LIG   0.0000
  29 C29         -4.8879     0.4056    -0.9064 C.ar         1    LIG   0.0000
  30 C30         -4.5467     0.9210     0.3398 C.ar         1    LIG   0.0000
  31 C31         -5.5512     0.7966     1.4740 C.3          1    LIG   0.0000
  32 C32         -3.3135     1.5349     0.5355 C.ar         1    LIG   0.0000
  33 O33         -3.0108     2.0263     1.7566 O.3          1    LIG   0.0000
  34 C34         -0.2102     0.0692     0.3027 C.3          1    LIG   0.0000
  35 C35          0.6992    -0.4591     1.4029 C.3          1    LIG   0.0000
  36 C36          2.5841    -2.7857     1.6773 C.ar         1    LIG   0.0000
  37 C37          2.7786    -4.1537     1.8340 C.ar         1    LIG   0.0000
  38 H            3.2711    -6.6156     2.3393 H            1    LIG   0.0000
  39 H            4.6884    -6.3280     3.0978 H            1    LIG   0.0000
  40 H            3.3056    -6.4262     3.9609 H            1    LIG   0.0000
  41 H            4.5337    -4.1047     4.6481 H            1    LIG   0.0000
  42 H            4.2055    -1.7447     4.3884 H            1    LIG   0.0000
  43 H            2.5404    -0.2492     0.4071 H            1    LIG   0.0000
  44 H            3.0237     1.9130     1.3191 H            1    LIG   0.0000
  45 H            1.6918     1.8120     2.2584 H            1    LIG   0.0000
  46 H            1.0845     3.1560     0.5073 H            1    LIG   0.0000
  47 H            1.7770     2.1603    -0.5862 H            1    LIG   0.0000
  48 H           -2.0990     1.1925    -2.5347 H            1    LIG   0.0000
  49 H           -3.5068    -0.3436    -3.7917 H            1    LIG   0.0000
  50 H           -4.9546    -0.8293    -3.2133 H            1    LIG   0.0000
  51 H           -4.3659     3.7785    -7.0851 H            1    LIG   0.0000
  52 H           -6.3042     5.0841    -7.6716 H            1    LIG   0.0000
  53 H           -8.3775     4.6910    -6.5615 H            1    LIG   0.0000
  54 H           -8.5547     3.0240    -4.8683 H            1    LIG   0.0000
  55 H           -5.7746    -0.0350    -1.0462 H            1    LIG   0.0000
  56 H           -6.3714     0.3300     1.1431 H            1    LIG   0.0000
  57 H           -5.1465     0.2697     2.2214 H            1    LIG   0.0000
  58 H           -5.7964     1.7083     1.8035 H            1    LIG   0.0000
  59 H           -3.6693     1.9464     2.5050 H            1    LIG   0.0000
  60 H           -0.0049    -0.4169    -0.5468 H            1    LIG   0.0000
  61 H           -1.1613    -0.0992     0.5616 H            1    LIG   0.0000
  62 H            0.3365    -0.1649     2.2872 H            1    LIG   0.0000
  63 H            0.7058    -1.4582     1.3610 H            1    LIG   0.0000
  64 H            2.0701    -2.4342     0.8948 H            1    LIG   0.0000
  65 H            2.4029    -4.7923     1.1624 H            1    LIG   0.0000
@<TRIPOS>BOND
   1        1        2 1
   2        2        3 ar
   3        3        4 ar
   4        4        5 ar
   5        5        6 1
   6        6        7 2
   7        6        8 1
   8        8        9 1
   9        9       10 1
  10       10       11 1
  11       11       12 am
  12       12       13 2
  13       12       14 1
  14       14       15 ar
  15       15       16 ar
  16       16       17 1
  17       17       18 1
  18       18       19 am
  19       19       20 2
  20       19       21 1
  21       21       22 ar
  22       22       23 ar
  23       23       24 ar
  24       24       25 ar
  25       25       26 ar
  26       26       21 ar
  27       26       27 1
  28       27       18 am
  29       27       28 2
  30       16       29 ar
  31       29       30 ar
  32       30       31 1
  33       30       32 ar
  34       32       14 ar
  35       32       33 1
  36       11       34 1
  37       34       35 1
  38       35        8 1
  39        5       36 ar
  40       36       37 ar
  41       37        2 ar
  42        1       38 1
  43        1       39 1
  44        1       40 1
  45        3       41 1
  46        4       42 1
  47        8       43 1
  48        9       44 1
  49        9       45 1
  50       10       46 1
  51       10       47 1
  52       15       48 1
  53       17       49 1
  54       17       50 1
  55       22       51 1
  56       23       52 1
  57       24       53 1
  58       25       54 1
  59       29       55 1
  60       31       56 1
  61       31       57 1
  62       31       58 1
  63       33       59 1
  64       34       60 1
  65       34       61 1
  66       35       62 1
  67       35       63 1
  68       36       64 1
  69       37       65 1

@<TRIPOS>MOLECULE

  65   69
SMALL
USER_CHARGES
@<TRIPOS>ATOM
   1 C1           3.7084    -6.1287     3.0954 C.3          1    LIG   0.0000
   2 C2           3.4961    -4.6339     2.9252 C.ar         1    LIG   0.0000
   3 C3           4.0203    -3.7532     3.8652 C.ar         1    LIG   0.0000
   4 C4           3.8304    -2.3833     3.7163 C.ar         1    LIG   0.0000
   5 C5           3.1129    -1.9117     2.6219 C.ar         1    LIG   0.0000
   6 C6           2.9126    -0.4848     2.4622 C.2          1    LIG   0.0000
   7 O7           3.3642     0.2787     3.2703 O.2          1    LIG   0.0000
   8 C8           2.1302     0.0444     1.2705 C.3          1    LIG   0.0000
   9 C9           2.0890     1.5622     1.3753 C.3          1    LIG   0.0000
  10 C10          1.2603     2.2009     0.2690 C.3          1    LIG   0.0000
  11 N11         -0.0269     1.5131     0.0802 N.am         1    LIG   0.0000
  12 C12         -1.1286     2.2716    -0.3251 C.2          1    LIG   0.0000
  13 O13         -1.0097     3.4514    -0.5095 O.2          1    LIG   0.0000
  14 C14         -2.4156     1.6328    -0.5228 C.ar         1    LIG   0.0000
  15 C15         -2.7444     1.1215    -1.7742 C.ar         1    LIG   0.0000
  16 C16         -3.9808     0.5105    -1.9559 C.ar         1    LIG   0.0000
  17 C17         -4.3396    -0.0485    -3.3233 C.3          1    LIG   0.0000
  18 N18         -3.9036    -1.4509    -3.4095 N.am         1    LIG   0.0000
  19 C19         -4.7256    -2.5634    -3.2448 C.2          1    LIG   0.0000
  20 O20         -5.9217    -2.5364    -3.0084 O.2          1    LIG   0.0000
  21 C21         -3.9161    -3.7451    -3.4032 C.ar         1    LIG   0.0000
  22 C22         -4.3011    -5.0775    -3.3172 C.ar         1    LIG   0.0000
  23 C23         -3.3165    -6.0395    -3.5045 C.ar         1    LIG   0.0000
  24 C24         -2.0070    -5.6515    -3.7683 C.ar         1    LIG   0.0000
  25 C25         -1.6627    -4.3070    -3.8461 C.ar         1    LIG   0.0000
  26 C26         -2.6332    -3.3268    -3.6609 C.ar         1    LIG   0.0000
  27 C27         -2.6056    -1.8791    -3.6670 C.2          1    LIG   0.0000
  28 O28         -1.6284    -1.1767    -3.8643 O.2          1    LIG   0.0000
  29 C29         -4.8879     0.4056    -0.9064 C.ar         1    LIG   0.0000
  30 C30         -4.5467     0.9210     0.3398 C.ar         1    LIG   0.0000
  31 C31         -5.5512     0.7966     1.4740 C.3          1    LIG   0.0000
  32 C32         -3.3135     1.5349     0.5355 C.ar         1    LIG   0.0000
  33 O33         -3.0108     2.0263     1.7566 O.3          1    LIG   0.0000
  34 C34         -0.2102     0.0692     0.3027 C.3          1    LIG   0.0000
  35 C35          0.6992    -0.4591     1.4029 C.3          1    LIG   0.0000
  36 C36          2.5841    -2.7857     1.6773 C.ar         1    LIG   0.0000
  37 C37          2.7786    -4.1537     1.8340 C.ar         1    LIG   0.0000
  38 H            3.2711    -6.6156     2.3393 H            1    LIG   0.0000
  39 H            4.6884    -6.3280     3.0978 H            1    LIG   0.0000
  40 H            3.3056    -6.4262     3.9609 H            1    LIG   0.0000
  41 H            4.5337    -4.1047     4.6481 H            1    LIG   0.0000
  42 H            4.2055    -1.7447     4.3884 H            1    LIG   0.0000
  43 H            2.5404    -0.2492     0.4071 H            1    LIG   0.0000
  44 H            3.0237     1.9130     1.3191 H            1    LIG   0.0000
  45 H            1.6918     1.8120     2.2584 H            1    LIG   0.0000
  46 H            1.0845     3.1560     0.5073 H            1    LIG   0.0000
  47 H            1.7770     2.1603    -0.5862 H            1    LIG   0.0000
  48 H           -2.0990     1.1925    -2.5347 H            1    LIG   0.0000
  49 H           -5.3297     0.0014    -3.4545 H            1    LIG   0.0000
  50 H           -3.8819     0.4871    -4.0329 H            1    LIG   0.0000
  51 H           -5.2490    -5.3337    -3.1280 H            1    LIG   0.0000
  52 H           -3.5491    -7.0106    -3.4498 H            1    LIG   0.0000
  53 H           -1.3037    -6.3493    -3.9038 H            1    LIG   0.0000
  54 H           -0.7167    -4.0438    -4.0352 H            1    LIG   0.0000
  55 H           -5.7746    -0.0350    -1.0462 H            1    LIG   0.0000
  56 H           -6.3714     0.3300     1.1431 H            1    LIG   0.0000
  57 H           -5.1465     0.2697     2.2214 H            1    LIG   0.0000
  58 H           -5.7964     1.7083     1.8035 H            1    LIG   0.0000
  59 H           -3.6693     1.9464     2.5050 H            1    LIG   0.0000
  60 H           -0.0049    -0.4169    -0.5468 H            1    LIG   0.0000
  61 H           -1.1613    -0.0992     0.5616 H            1    LIG   0.0000
  62 H            0.3365    -0.1649     2.2872 H            1    LIG   0.0000
  63 H            0.7058    -1.4582     1.3610 H            1    LIG   0.0000
  64 H            2.0701    -2.4342     0.8948 H            1    LIG   0.0000
  65 H            2.4029    -4.7923     1.1624 H            1    LIG   0.0000
@<TRIPOS>BOND
   1        1        2 1
   2        2        3 ar
   3        3        4 ar
   4        4        5 ar
   5        5        6 1
   6        6        7 2
   7        6        8 1
   8        8        9 1
   9        9       10 1
  10       10       11 1
  11       11       12 am
  12       12       13 2
  13       12       14 1
  14       14       15 ar
  15       15       16 ar
  16       16       17 1
  17       17       18 1
  18       18       19 am
  19       19       20 2
  20       19       21 1
  21       21       22 ar
  22       22       23 ar
  23       23       24 ar
  24       24       25 ar
  25       25       26 ar
  26       26       21 ar
  27       26       27 1
  28       27       18 am
  29       27       28 2
  30       16       29 ar
  31       29       30 ar
  32       30       31 1
  33       30       32 ar
  34       32       14 ar
  35       32       33 1
  36       11       34 1
  37       34       35 1
  38       35        8 1
  39        5       36 ar
  40       36       37 ar
  41       37        2 ar
  42        1       38 1
  43        1       39 1
  44        1       40 1
  45        3       41 1
  46        4       42 1
  47        8       43 1
  48        9       44 1
  49        9       45 1
  50       10       46 1
  51       10       47 1
  52       15       48 1
  53       17       49 1
  54       17       50 1
  55       22       51 1
  56       23       52 1
  57       24       53 1
  58       25       54 1
  59       29       55 1
  60       31       56 1
  61       31       57 1
  62       31       58 1
  63       33       59 1
  64       34       60 1
  65       34       61 1
  66       35       62 1
  67       35       63 1
  68       36       64 1
  69       37       65 1

@<TRIPOS>MOLECULE

  65   69
SMALL
USER_CHARGES
@<TRIPOS>ATOM
   1 C1           3.7084    -6.1287     3.0954 C.3          1    LIG   0.0000
   2 C2           3.4961    -4.6339     2.9252 C.ar         1    LIG   0.0000
   3 C3           4.0203    -3.7532     3.8652 C.ar         1    LIG   0.0000
   4 C4           3.8304    -2.3833     3.7163 C.ar         1    LIG   0.0000
   5 C5           3.1129    -1.9117     2.6219 C.ar         1    LIG   0.0000
   6 C6           2.9126    -0.4848     2.4622 C.2          1    LIG   0.0000
   7 O7           3.3642     0.2787     3.2703 O.2          1    LIG   0.0000
   8 C8           2.1302     0.0444     1.2705 C.3          1    LIG   0.0000
   9 C9           2.0890     1.5622     1.3753 C.3          1    LIG   0.0000
  10 C10          1.2603     2.2009     0.2690 C.3          1    LIG   0.0000
  11 N11         -0.0269     1.5131     0.0802 N.am         1    LIG   0.0000
  12 C12         -1.1286     2.2716    -0.3251 C.2          1    LIG   0.0000
  13 O13         -1.0097     3.4514    -0.5095 O.2          1    LIG   0.0000
  14 C14         -2.4156     1.6328    -0.5228 C.ar         1    LIG   0.0000
  15 C15         -3.3070     1.5385     0.5413 C.ar         1    LIG   0.0000
  16 C16         -4.5393     0.9241     0.3439 C.ar         1    LIG   0.0000
  17 C17         -5.5132     0.8216     1.5065 C.3          1    LIG   0.0000
  18 N18         -5.2752    -0.4332     2.2365 N.am         1    LIG   0.0000
  19 C19         -4.5558    -0.5526     3.4234 C.2          1    LIG   0.0000
  20 O20         -4.0230     0.3624     4.0284 O.2          1    LIG   0.0000
  21 C21         -4.5538    -1.9416     3.8075 C.ar         1    LIG   0.0000
  22 C22         -3.9568    -2.5344     4.9135 C.ar         1    LIG   0.0000
  23 C23         -4.0970    -3.9093     5.0540 C.ar         1    LIG   0.0000
  24 C24         -4.8145    -4.6349     4.1086 C.ar         1    LIG   0.0000
  25 C25         -5.3965    -4.0037     3.0154 C.ar         1    LIG   0.0000
  26 C26         -5.2678    -2.6272     2.8550 C.ar         1    LIG   0.0000
  27 C27         -5.7303    -1.6902     1.8527 C.2          1    LIG   0.0000
  28 O28         -6.3943    -1.9584     0.8655 O.2          1    LIG   0.0000
  29 C29         -4.8889     0.4053    -0.8986 C.ar         1    LIG   0.0000
  30 C30         -3.9885     0.5062    -1.9542 C.ar         1    LIG   0.0000
  31 C31         -4.3888    -0.0668    -3.3041 C.3          1    LIG   0.0000
  32 C32         -2.7523     1.1179    -1.7706 C.ar         1    LIG   0.0000
  33 O33         -1.8989     1.2004    -2.8142 O.3          1    LIG   0.0000
  34 C34         -0.2102     0.0692     0.3027 C.3          1    LIG   0.0000
  35 C35          0.6992    -0.4591     1.4029 C.3          1    LIG   0.0000
  36 C36          2.5841    -2.7857     1.6773 C.ar         1    LIG   0.0000
  37 C37          2.7786    -4.1537     1.8340 C.ar         1    LIG   0.0000
  38 H            3.2711    -6.6156     2.3393 H            1    LIG   0.0000
  39 H            4.6884    -6.3280     3.0978 H            1    LIG   0.0000
  40 H            3.3056    -6.4262     3.9609 H            1    LIG   0.0000
  41 H            4.5337    -4.1047     4.6481 H            1    LIG   0.0000
  42 H            4.2055    -1.7447     4.3884 H            1    LIG   0.0000
  43 H            2.5404    -0.2492     0.4071 H            1    LIG   0.0000
  44 H            3.0237     1.9130     1.3191 H            1    LIG   0.0000
  45 H            1.6918     1.8120     2.2584 H            1    LIG   0.0000
  46 H            1.0845     3.1560     0.5073 H            1    LIG   0.0000
  47 H            1.7770     2.1603    -0.5862 H            1    LIG   0.0000
  48 H           -3.0644     1.9082     1.4382 H            1    LIG   0.0000
  49 H           -5.3785     1.5969     2.1236 H            1    LIG   0.0000
  50 H           -6.4505     0.8319     1.1581 H            1    LIG   0.0000
  51 H           -3.4467    -1.9928     5.5817 H            1    LIG   0.0000
  52 H           -3.6823    -4.3773     5.8344 H            1    LIG   0.0000
  53 H           -4.9129    -5.6241     4.2168 H            1    LIG   0.0000
  54 H           -5.9083    -4.5392     2.3436 H            1    LIG   0.0000
  55 H           -5.7768    -0.0350    -1.0314 H            1    LIG   0.0000
  56 H           -5.3051    -0.4621    -3.2400 H            1    LIG   0.0000
  57 H           -4.3873     0.6618    -3.9891 H            1    LIG   0.0000
  58 H           -3.7374    -0.7769    -3.5713 H            1    LIG   0.0000
  59 H           -2.1588     0.8244    -3.7036 H            1    LIG   0.0000
  60 H           -0.0049    -0.4169    -0.5468 H            1    LIG   0.0000
  61 H           -1.1613    -0.0992     0.5616 H            1    LIG   0.0000
  62 H            0.3365    -0.1649     2.2872 H            1    LIG   0.0000
  63 H            0.7058    -1.4582     1.3610 H            1    LIG   0.0000
  64 H            2.0701    -2.4342     0.8948 H            1    LIG   0.0000
  65 H            2.4029    -4.7923     1.1624 H            1    LIG   0.0000
@<TRIPOS>BOND
   1        1        2 1
   2        2        3 ar
   3        3        4 ar
   4        4        5 ar
   5        5        6 1
   6        6        7 2
   7        6        8 1
   8        8        9 1
   9        9       10 1
  10       10       11 1
  11       11       12 am
  12       12       13 2
  13       12       14 1
  14       14       15 ar
  15       15       16 ar
  16       16       17 1
  17       17       18 1
  18       18       19 am
  19       19       20 2
  20       19       21 1
  21       21       22 ar
  22       22       23 ar
  23       23       24 ar
  24       24       25 ar
  25       25       26 ar
  26       26       21 ar
  27       26       27 1
  28       27       18 am
  29       27       28 2
  30       16       29 ar
  31       29       30 ar
  32       30       31 1
  33       30       32 ar
  34       32       14 ar
  35       32       33 1
  36       11       34 1
  37       34       35 1
  38       35        8 1
  39        5       36 ar
  40       36       37 ar
  41       37        2 ar
  42        1       38 1
  43        1       39 1
  44        1       40 1
  45        3       41 1
  46        4       42 1
  47        8       43 1
  48        9       44 1
  49        9       45 1
  50       10       46 1
  51       10       47 1
  52       15       48 1
  53       17       49 1
  54       17       50 1
  55       22       51 1
  56       23       52 1
  57       24       53 1
  58       25       54 1
  59       29       55 1
  60       31       56 1
  61       31       57 1
  62       31       58 1
  63       33       59 1
  64       34       60 1
  65       34       61 1
  66       35       62 1
  67       35       63 1
  68       36       64 1
  69       37       65 1

@<TRIPOS>MOLECULE

  65   69
SMALL
USER_CHARGES
@<TRIPOS>ATOM
   1 C1           3.7084    -6.1287     3.0954 C.3          1    LIG   0.0000
   2 C2           3.4961    -4.6339     2.9252 C.ar         1    LIG   0.0000
   3 C3           4.0203    -3.7532     3.8652 C.ar         1    LIG   0.0000
   4 C4           3.8304    -2.3833     3.7163 C.ar         1    LIG   0.0000
   5 C5           3.1129    -1.9117     2.6219 C.ar         1    LIG   0.0000
   6 C6           2.9126    -0.4848     2.4622 C.2          1    LIG   0.0000
   7 O7           3.3642     0.2787     3.2703 O.2          1    LIG   0.0000
   8 C8           2.1302     0.0444     1.2705 C.3          1    LIG   0.0000
   9 C9           2.0890     1.5622     1.3753 C.3          1    LIG   0.0000
  10 C10          1.2603     2.2009     0.2690 C.3          1    LIG   0.0000
  11 N11         -0.0269     1.5131     0.0802 N.am         1    LIG   0.0000
  12 C12         -1.1286     2.2716    -0.3251 C.2          1    LIG   0.0000
  13 O13         -1.0097     3.4514    -0.5095 O.2          1    LIG   0.0000
  14 C14         -2.4156     1.6328    -0.5228 C.ar         1    LIG   0.0000
  15 C15         -3.3070     1.5385     0.5413 C.ar         1    LIG   0.0000
  16 C16         -4.5393     0.9241     0.3439 C.ar         1    LIG   0.0000
  17 C17         -5.5132     0.8216     1.5065 C.3          1    LIG   0.0000
  18 N18         -6.3797     2.0103     1.5267 N.am         1    LIG   0.0000
  19 C19         -7.6820     2.0684     1.0356 C.2          1    LIG   0.0000
  20 O20         -8.2913     1.1453     0.5220 O.2          1    LIG   0.0000
  21 C21         -8.1787     3.4054     1.2421 C.ar         1    LIG   0.0000
  22 C22         -9.4207     3.9303     0.9062 C.ar         1    LIG   0.0000
  23 C23         -9.6520     5.2662     1.2093 C.ar         1    LIG   0.0000
  24 C24         -8.6597     6.0206     1.8265 C.ar         1    LIG   0.0000
  25 C25         -7.4297     5.4576     2.1461 C.ar         1    LIG   0.0000
  26 C26         -7.1766     4.1213     1.8508 C.ar         1    LIG   0.0000
  27 C27         -6.0306     3.2561     2.0371 C.2          1    LIG   0.0000
  28 O28         -4.9674     3.5664     2.5477 O.2          1    LIG   0.0000
  29 C29         -4.8889     0.4053    -0.8986 C.ar         1    LIG   0.0000
  30 C30         -3.9885     0.5062    -1.9542 C.ar         1    LIG   0.0000
  31 C31         -4.3888    -0.0668    -3.3041 C.3          1    LIG   0.0000
  32 C32         -2.7523     1.1179    -1.7706 C.ar         1    LIG   0.0000
  33 O33         -1.8989     1.2004    -2.8142 O.3          1    LIG   0.0000
  34 C34         -0.2102     0.0692     0.3027 C.3          1    LIG   0.0000
  35 C35          0.6992    -0.4591     1.4029 C.3          1    LIG   0.0000
  36 C36          2.5841    -2.7857     1.6773 C.ar         1    LIG   0.0000
  37 C37          2.7786    -4.1537     1.8340 C.ar         1    LIG   0.0000
  38 H            3.2711    -6.6156     2.3393 H            1    LIG   0.0000
  39 H            4.6884    -6.3280     3.0978 H            1    LIG   0.0000
  40 H            3.3056    -6.4262     3.9609 H            1    LIG   0.0000
  41 H            4.5337    -4.1047     4.6481 H            1    LIG   0.0000
  42 H            4.2055    -1.7447     4.3884 H            1    LIG   0.0000
  43 H            2.5404    -0.2492     0.4071 H            1    LIG   0.0000
  44 H            3.0237     1.9130     1.3191 H            1    LIG   0.0000
  45 H            1.6918     1.8120     2.2584 H            1    LIG   0.0000
  46 H            1.0845     3.1560     0.5073 H            1    LIG   0.0000
  47 H            1.7770     2.1603    -0.5862 H            1    LIG   0.0000
  48 H           -3.0644     1.9082     1.4382 H            1    LIG   0.0000
  49 H           -6.0751     0.0014     1.3994 H            1    LIG   0.0000
  50 H           -5.0031     0.7664     2.3648 H            1    LIG   0.0000
  51 H          -10.1201     3.3688     0.4640 H            1    LIG   0.0000
  52 H          -10.5316     5.6852     0.9837 H            1    LIG   0.0000
  53 H           -8.8337     6.9812     2.0434 H            1    LIG   0.0000
  54 H           -6.7258     6.0133     2.5887 H            1    LIG   0.0000
  55 H           -5.7768    -0.0350    -1.0314 H            1    LIG   0.0000
  56 H           -5.3051    -0.4621    -3.2400 H            1    LIG   0.0000
  57 H           -4.3873     0.6618    -3.9891 H            1    LIG   0.0000
  58 H           -3.7374    -0.7769    -3.5713 H            1    LIG   0.0000
  59 H           -2.1588     0.8244    -3.7036 H            1    LIG   0.0000
  60 H           -0.0049    -0.4169    -0.5468 H            1    LIG   0.0000
  61 H           -1.1613    -0.0992     0.5616 H            1    LIG   0.0000
  62 H            0.3365    -0.1649     2.2872 H            1    LIG   0.0000
  63 H            0.7058    -1.4582     1.3610 H            1    LIG   0.0000
  64 H            2.0701    -2.4342     0.8948 H            1    LIG   0.0000
  65 H            2.4029    -4.7923     1.1624 H            1    LIG   0.0000
@<TRIPOS>BOND
   1        1        2 1
   2        2        3 ar
   3        3        4 ar
   4        4        5 ar
   5        5        6 1
   6        6        7 2
   7        6        8 1
   8        8        9 1
   9        9       10 1
  10       10       11 1
  11       11       12 am
  12       12       13 2
  13       12       14 1
  14       14       15 ar
  15       15       16 ar
  16       16       17 1
  17       17       18 1
  18       18       19 am
  19       19       20 2
  20       19       21 1
  21       21       22 ar
  22       22       23 ar
  23       23       24 ar
  24       24       25 ar
  25       25       26 ar
  26       26       21 ar
  27       26       27 1
  28       27       18 am
  29       27       28 2
  30       16       29 ar
  31       29       30 ar
  32       30       31 1
  33       30       32 ar
  34       32       14 ar
  35       32       33 1
  36       11       34 1
  37       34       35 1
  38       35        8 1
  39        5       36 ar
  40       36       37 ar
  41       37        2 ar
  42        1       38 1
  43        1       39 1
  44        1       40 1
  45        3       41 1
  46        4       42 1
  47        8       43 1
  48        9       44 1
  49        9       45 1
  50       10       46 1
  51       10       47 1
  52       15       48 1
  53       17       49 1
  54       17       50 1
  55       22       51 1
  56       23       52 1
  57       24       53 1
  58       25       54 1
  59       29       55 1
  60       31       56 1
  61       31       57 1
  62       31       58 1
  63       33       59 1
  64       34       60 1
  65       34       61 1
  66       35       62 1
  67       35       63 1
  68       36       64 1
  69       37       65 1

@<TRIPOS>MOLECULE

  65   69
SMALL
USER_CHARGES
@<TRIPOS>ATOM
   1 C1           3.7084    -6.1287     3.0954 C.3          1    LIG   0.0000
   2 C2           3.4961    -4.6339     2.9252 C.ar         1    LIG   0.0000
   3 C3           4.0203    -3.7532     3.8652 C.ar         1    LIG   0.0000
   4 C4           3.8304    -2.3833     3.7163 C.ar         1    LIG   0.0000
   5 C5           3.1129    -1.9117     2.6219 C.ar         1    LIG   0.0000
   6 C6           2.9126    -0.4848     2.4622 C.2          1    LIG   0.0000
   7 O7           3.3642     0.2787     3.2703 O.2          1    LIG   0.0000
   8 C8           2.1302     0.0444     1.2705 C.3          1    LIG   0.0000
   9 C9           2.0890     1.5622     1.3753 C.3          1    LIG   0.0000
  10 C10          1.2603     2.2009     0.2690 C.3          1    LIG   0.0000
  11 N11         -0.0269     1.5131     0.0802 N.am         1    LIG   0.0000
  12 C12         -1.1286     2.2716    -0.3251 C.2          1    LIG   0.0000
  13 O13         -2.1935     1.7431    -0.4886 O.2          1    LIG   0.0000
  14 C14         -0.9849     3.6975    -0.5480 C.ar         1    LIG   0.0000
  15 C15         -0.6342     4.1640    -1.8109 C.ar         1    LIG   0.0000
  16 C16         -0.4981     5.5330    -2.0167 C.ar         1    LIG   0.0000
  17 C17         -0.1154     6.0425    -3.3968 C.3          1    LIG   0.0000
  18 N18          1.3497     6.1248    -3.5003 N.am         1    LIG   0.0000
  19 C19          2.1692     5.1848    -4.1212 C.2          1    LIG   0.0000
  20 O20          1.7922     4.1626    -4.6689 O.2          1    LIG   0.0000
  21 C21          3.5337     5.6331    -4.0026 C.ar         1    LIG   0.0000
  22 C22          4.6914     5.0179    -4.4632 C.ar         1    LIG   0.0000
  23 C23          5.8980     5.6587    -4.2114 C.ar         1    LIG   0.0000
  24 C24          5.9124     6.8682    -3.5246 C.ar         1    LIG   0.0000
  25 C25          4.7313     7.4509    -3.0800 C.ar         1    LIG   0.0000
  26 C26          3.5114     6.8255    -3.3209 C.ar         1    LIG   0.0000
  27 C27          2.1392     7.1516    -2.9935 C.2          1    LIG   0.0000
  28 O28          1.7563     8.1406    -2.3915 O.2          1    LIG   0.0000
  29 C29         -0.7070     6.4364    -0.9796 C.ar         1    LIG   0.0000
  30 C30         -1.0573     5.9567     0.2783 C.ar         1    LIG   0.0000
  31 C31         -1.2814     6.9596     1.3985 C.3          1    LIG   0.0000
  32 C32         -1.1966     4.5899     0.4981 C.ar         1    LIG   0.0000
  33 O33         -1.5370     4.1542     1.7305 O.3          1    LIG   0.0000
  34 C34         -0.2102     0.0692     0.3027 C.3          1    LIG   0.0000
  35 C35          0.6992    -0.4591     1.4029 C.3          1    LIG   0.0000
  36 C36          2.5841    -2.7857     1.6773 C.ar         1    LIG   0.0000
  37 C37          2.7786    -4.1537     1.8340 C.ar         1    LIG   0.0000
  38 H            3.2711    -6.6156     2.3393 H            1    LIG   0.0000
  39 H            4.6884    -6.3280     3.0978 H            1    LIG   0.0000
  40 H            3.3056    -6.4262     3.9609 H            1    LIG   0.0000
  41 H            4.5337    -4.1047     4.6481 H            1    LIG   0.0000
  42 H            4.2055    -1.7447     4.3884 H            1    LIG   0.0000
  43 H            2.5404    -0.2492     0.4071 H            1    LIG   0.0000
  44 H            3.0237     1.9130     1.3191 H            1    LIG   0.0000
  45 H            1.6918     1.8120     2.2584 H            1    LIG   0.0000
  46 H            1.0845     3.1560     0.5073 H            1    LIG   0.0000
  47 H            1.7770     2.1603    -0.5862 H            1    LIG   0.0000
  48 H           -0.4817     3.5223    -2.5625 H            1    LIG   0.0000
  49 H           -0.4640     5.4144    -4.0925 H            1    LIG   0.0000
  50 H           -0.5111     6.9499    -3.5387 H            1    LIG   0.0000
  51 H            4.6573     4.1486    -4.9563 H            1    LIG   0.0000
  52 H            6.7558     5.2506    -4.5238 H            1    LIG   0.0000
  53 H            6.7844     7.3249    -3.3484 H            1    LIG   0.0000
  54 H            4.7580     8.3202    -2.5866 H            1    LIG   0.0000
  55 H           -0.6067     7.4189    -1.1365 H            1    LIG   0.0000
  56 H           -1.1364     7.8858     1.0507 H            1    LIG   0.0000
  57 H           -2.2175     6.8744     1.7398 H            1    LIG   0.0000
  58 H           -0.6378     6.7781     2.1421 H            1    LIG   0.0000
  59 H           -1.6850     4.8111     2.4698 H            1    LIG   0.0000
  60 H           -0.0049    -0.4169    -0.5468 H            1    LIG   0.0000
  61 H           -1.1613    -0.0992     0.5616 H            1    LIG   0.0000
  62 H            0.3365    -0.1649     2.2872 H            1    LIG   0.0000
  63 H            0.7058    -1.4582     1.3610 H            1    LIG   0.0000
  64 H            2.0701    -2.4342     0.8948 H            1    LIG   0.0000
  65 H            2.4029    -4.7923     1.1624 H            1    LIG   0.0000
@<TRIPOS>BOND
   1        1        2 1
   2        2        3 ar
   3        3        4 ar
   4        4        5 ar
   5        5        6 1
   6        6        7 2
   7        6        8 1
   8        8        9 1
   9        9       10 1
  10       10       11 1
  11       11       12 am
  12       12       13 2
  13       12       14 1
  14       14       15 ar
  15       15       16 ar
  16       16       17 1
  17       17       18 1
  18       18       19 am
  19       19       20 2
  20       19       21 1
  21       21       22 ar
  22       22       23 ar
  23       23       24 ar
  24       24       25 ar
  25       25       26 ar
  26       26       21 ar
  27       26       27 1
  28       27       18 am
  29       27       28 2
  30       16       29 ar
  31       29       30 ar
  32       30       31 1
  33       30       32 ar
  34       32       14 ar
  35       32       33 1
  36       11       34 1
  37       34       35 1
  38       35        8 1
  39        5       36 ar
  40       36       37 ar
  41       37        2 ar
  42        1       38 1
  43        1       39 1
  44        1       40 1
  45        3       41 1
  46        4       42 1
  47        8       43 1
  48        9       44 1
  49        9       45 1
  50       10       46 1
  51       10       47 1
  52       15       48 1
  53       17       49 1
  54       17       50 1
  55       22       51 1
  56       23       52 1
  57       24       53 1
  58       25       54 1
  59       29       55 1
  60       31       56 1
  61       31       57 1
  62       31       58 1
  63       33       59 1
  64       34       60 1
  65       34       61 1
  66       35       62 1
  67       35       63 1
  68       36       64 1
  69       37       65 1

@<TRIPOS>MOLECULE

  65   69
SMALL
USER_CHARGES
@<TRIPOS>ATOM
   1 C1           3.7084    -6.1287     3.0954 C.3          1    LIG   0.0000
   2 C2           3.4961    -4.6339     2.9252 C.ar         1    LIG   0.0000
   3 C3           4.0203    -3.7532     3.8652 C.ar         1    LIG   0.0000
   4 C4           3.8304    -2.3833     3.7163 C.ar         1    LIG   0.0000
   5 C5           3.1129    -1.9117     2.6219 C.ar         1    LIG   0.0000
   6 C6           2.9126    -0.4848     2.4622 C.2          1    LIG   0.0000
   7 O7           3.3642     0.2787     3.2703 O.2          1    LIG   0.0000
   8 C8           2.1302     0.0444     1.2705 C.3          1    LIG   0.0000
   9 C9           2.0890     1.5622     1.3753 C.3          1    LIG   0.0000
  10 C10          1.2603     2.2009     0.2690 C.3          1    LIG   0.0000
  11 N11         -0.0269     1.5131     0.0802 N.am         1    LIG   0.0000
  12 C12         -1.1286     2.2716    -0.3251 C.2          1    LIG   0.0000
  13 O13         -2.1935     1.7431    -0.4886 O.2          1    LIG   0.0000
  14 C14         -0.9849     3.6975    -0.5480 C.ar         1    LIG   0.0000
  15 C15         -0.6342     4.1640    -1.8109 C.ar         1    LIG   0.0000
  16 C16         -0.4981     5.5330    -2.0167 C.ar         1    LIG   0.0000
  17 C17         -0.1154     6.0425    -3.3968 C.3          1    LIG   0.0000
  18 N18         -1.3337     6.2890    -4.1837 N.am         1    LIG   0.0000
  19 C19         -1.9240     7.5340    -4.3889 C.2          1    LIG   0.0000
  20 O20         -1.5170     8.5963    -3.9497 O.2          1    LIG   0.0000
  21 C21         -3.0942     7.3445    -5.2085 C.ar         1    LIG   0.0000
  22 C22         -3.9984     8.2972    -5.6621 C.ar         1    LIG   0.0000
  23 C23         -5.0591     7.8507    -6.4403 C.ar         1    LIG   0.0000
  24 C24         -5.1814     6.4974    -6.7376 C.ar         1    LIG   0.0000
  25 C25         -4.2549     5.5757    -6.2639 C.ar         1    LIG   0.0000
  26 C26         -3.1851     6.0013    -5.4820 C.ar         1    LIG   0.0000
  27 C27         -2.0815     5.3177    -4.8408 C.2          1    LIG   0.0000
  28 O28         -1.8553     4.1198    -4.8772 O.2          1    LIG   0.0000
  29 C29         -0.7070     6.4364    -0.9796 C.ar         1    LIG   0.0000
  30 C30         -1.0573     5.9567     0.2783 C.ar         1    LIG   0.0000
  31 C31         -1.2814     6.9596     1.3985 C.3          1    LIG   0.0000
  32 C32         -1.1966     4.5899     0.4981 C.ar         1    LIG   0.0000
  33 O33         -1.5370     4.1542     1.7305 O.3          1    LIG   0.0000
  34 C34         -0.2102     0.0692     0.3027 C.3          1    LIG   0.0000
  35 C35          0.6992    -0.4591     1.4029 C.3          1    LIG   0.0000
  36 C36          2.5841    -2.7857     1.6773 C.ar         1    LIG   0.0000
  37 C37          2.7786    -4.1537     1.8340 C.ar         1    LIG   0.0000
  38 H            3.2711    -6.6156     2.3393 H            1    LIG   0.0000
  39 H            4.6884    -6.3280     3.0978 H            1    LIG   0.0000
  40 H            3.3056    -6.4262     3.9609 H            1    LIG   0.0000
  41 H            4.5337    -4.1047     4.6481 H            1    LIG   0.0000
  42 H            4.2055    -1.7447     4.3884 H            1    LIG   0.0000
  43 H            2.5404    -0.2492     0.4071 H            1    LIG   0.0000
  44 H            3.0237     1.9130     1.3191 H            1    LIG   0.0000
  45 H            1.6918     1.8120     2.2584 H            1    LIG   0.0000
  46 H            1.0845     3.1560     0.5073 H            1    LIG   0.0000
  47 H            1.7770     2.1603    -0.5862 H            1    LIG   0.0000
  48 H           -0.4817     3.5223    -2.5625 H            1    LIG   0.0000
  49 H            0.4010     6.8941    -3.3064 H            1    LIG   0.0000
  50 H            0.4481     5.3586    -3.8602 H            1    LIG   0.0000
  51 H           -3.8900     9.2655    -5.4372 H            1    LIG   0.0000
  52 H           -5.7343     8.5020    -6.7866 H            1    LIG   0.0000
  53 H           -5.9464     6.1832    -7.2998 H            1    LIG   0.0000
  54 H           -4.3572     4.6059    -6.4852 H            1    LIG   0.0000
  55 H           -0.6067     7.4189    -1.1365 H            1    LIG   0.0000
  56 H           -1.1364     7.8858     1.0507 H            1    LIG   0.0000
  57 H           -2.2175     6.8744     1.7398 H            1    LIG   0.0000
  58 H           -0.6378     6.7781     2.1421 H            1    LIG   0.0000
  59 H           -1.6850     4.8111     2.4698 H            1    LIG   0.0000
  60 H           -0.0049    -0.4169    -0.5468 H            1    LIG   0.0000
  61 H           -1.1613    -0.0992     0.5616 H            1    LIG   0.0000
  62 H            0.3365    -0.1649     2.2872 H            1    LIG   0.0000
  63 H            0.7058    -1.4582     1.3610 H            1    LIG   0.0000
  64 H            2.0701    -2.4342     0.8948 H            1    LIG   0.0000
  65 H            2.4029    -4.7923     1.1624 H            1    LIG   0.0000
@<TRIPOS>BOND
   1        1        2 1
   2        2        3 ar
   3        3        4 ar
   4        4        5 ar
   5        5        6 1
   6        6        7 2
   7        6        8 1
   8        8        9 1
   9        9       10 1
  10       10       11 1
  11       11       12 am
  12       12       13 2
  13       12       14 1
  14       14       15 ar
  15       15       16 ar
  16       16       17 1
  17       17       18 1
  18       18       19 am
  19       19       20 2
  20       19       21 1
  21       21       22 ar
  22       22       23 ar
  23       23       24 ar
  24       24       25 ar
  25       25       26 ar
  26       26       21 ar
  27       26       27 1
  28       27       18 am
  29       27       28 2
  30       16       29 ar
  31       29       30 ar
  32       30       31 1
  33       30       32 ar
  34       32       14 ar
  35       32       33 1
  36       11       34 1
  37       34       35 1
  38       35        8 1
  39        5       36 ar
  40       36       37 ar
  41       37        2 ar
  42        1       38 1
  43        1       39 1
  44        1       40 1
  45        3       41 1
  46        4       42 1
  47        8       43 1
  48        9       44 1
  49        9       45 1
  50       10       46 1
  51       10       47 1
  52       15       48 1
  53       17       49 1
  54       17       50 1
  55       22       51 1
  56       23       52 1
  57       24       53 1
  58       25       54 1
  59       29       55 1
  60       31       56 1
  61       31       57 1
  62       31       58 1
  63       33       59 1
  64       34       60 1
  65       34       61 1
  66       35       62 1
  67       35       63 1
  68       36       64 1
  69       37       65 1

@<TRIPOS>MOLECULE

  65   69
SMALL
USER_CHARGES
@<TRIPOS>ATOM
   1 C1           2.5980    -3.6874     6.7325 C.3          1    LIG   0.0000
   2 C2           2.0372    -3.1802     5.4147 C.ar         1    LIG   0.0000
   3 C3           1.3348    -4.0487     4.5861 C.ar         1    LIG   0.0000
   4 C4           0.8180    -3.5920     3.3782 C.ar         1    LIG   0.0000
   5 C5           1.0140    -2.2638     3.0142 C.ar         1    LIG   0.0000
   6 C6           0.4770    -1.7828     1.7563 C.2          1    LIG   0.0000
   7 O7          -0.1306    -2.5286     1.0390 O.2          1    LIG   0.0000
   8 C8           0.6838    -0.3339     1.3461 C.3          1    LIG   0.0000
   9 C9           2.1633    -0.0007     1.2331 C.3          1    LIG   0.0000
  10 C10          2.3415     1.4944     1.0140 C.3          1    LIG   0.0000
  11 N11          1.0781     2.1230     0.6036 N.am         1    LIG   0.0000
  12 C12          0.8488     3.4259     1.0392 C.2          1    LIG   0.0000
  13 O13         -0.1656     3.9904     0.7353 O.2          1    LIG   0.0000
  14 C14          1.8360     4.1005     1.8601 C.ar         1    LIG   0.0000
  15 C15          1.7671     3.9935     3.2455 C.ar         1    LIG   0.0000
  16 C16          2.7175     4.6437     4.0260 C.ar         1    LIG   0.0000
  17 C17          2.6423     4.5262     5.5397 C.3          1    LIG   0.0000
  18 N18          3.4268     3.3626     5.9809 N.am         1    LIG   0.0000
  19 C19          2.9032     2.1157     6.3150 C.2          1    LIG   0.0000
  20 O20          1.7234     1.8083     6.2882 O.2          1    LIG   0.0000
  21 C21          3.9974     1.2583     6.6950 C.ar         1    LIG   0.0000
  22 C22          3.9562    -0.0669     7.1111 C.ar         1    LIG   0.0000
  23 C23          5.1646    -0.6731     7.4311 C.ar         1    LIG   0.0000
  24 C24          6.3514     0.0449     7.3265 C.ar         1    LIG   0.0000
  25 C25          6.3496     1.3699     6.9062 C.ar         1    LIG   0.0000
  26 C26          5.1502     1.9967     6.5813 C.ar         1    LIG   0.0000
  27 C27          4.8090     3.3305     6.1327 C.2          1    LIG   0.0000
  28 O28          5.5897     4.2444     5.9263 O.2          1    LIG   0.0000
  29 C29          3.7306     5.3959     3.4404 C.ar         1    LIG   0.0000
  30 C30          3.7881     5.4947     2.0540 C.ar         1    LIG   0.0000
  31 C31          4.9026     6.3212     1.4331 C.3          1    LIG   0.0000
  32 C32          2.8438     4.8498     1.2613 C.ar         1    LIG   0.0000
  33 O33          2.9252     4.9647    -0.0819 O.3          1    LIG   0.0000
  34 C34          0.0434     1.4698    -0.2135 C.3          1    LIG   0.0000
  35 C35          0.0478    -0.0352    -0.0023 C.3          1    LIG   0.0000
  36 C36          1.7163    -1.3883     3.8364 C.ar         1    LIG   0.0000
  37 C37          2.2296    -1.8534     5.0423 C.ar         1    LIG   0.0000
  38 H            3.0708    -2.9420     7.2024 H            1    LIG   0.0000
  39 H            1.8504    -4.0220     7.3061 H            1    LIG   0.0000
  40 H            3.2419    -4.4320     6.5562 H            1    LIG   0.0000
  41 H            1.2013    -5.0016     4.8588 H            1    LIG   0.0000
  42 H            0.3114    -4.2113     2.7784 H            1    LIG   0.0000
  43 H            0.2707     0.2596     2.0369 H            1    LIG   0.0000
  44 H            2.5573    -0.4984     0.4604 H            1    LIG   0.0000
  45 H            2.6294    -0.2703     2.0758 H            1    LIG   0.0000
  46 H            2.6536     1.9145     1.8661 H            1    LIG   0.0000
  47 H            3.0261     1.6406     0.3000 H            1    LIG   0.0000
  48 H            1.0423     3.4552     3.6755 H            1    LIG   0.0000
  49 H            3.0129     5.3558     5.9573 H            1    LIG   0.0000
  50 H            1.6888     4.4103     5.8181 H            1    LIG   0.0000
  51 H            3.0913    -0.5644     7.1776 H            1    LIG   0.0000
  52 H            5.1812    -1.6251     7.7365 H            1    LIG   0.0000
  53 H            7.2178    -0.3983     7.5568 H            1    LIG   0.0000
  54 H            7.2109     1.8732     6.8372 H            1    LIG   0.0000
  55 H            4.4094     5.8602     4.0093 H            1    LIG   0.0000
  56 H            5.4771     6.7034     2.1569 H            1    LIG   0.0000
  57 H            5.4579     5.7392     0.8391 H            1    LIG   0.0000
  58 H            4.5059     7.0648     0.8948 H            1    LIG   0.0000
  59 H            3.6569     5.5078    -0.4939 H            1    LIG   0.0000
  60 H            0.2184     1.6645    -1.1786 H            1    LIG   0.0000
  61 H           -0.8524     1.8328     0.0428 H            1    LIG   0.0000
  62 H           -0.8908    -0.3801    -0.0159 H            1    LIG   0.0000
  63 H            0.5754    -0.4759    -0.7286 H            1    LIG   0.0000
  64 H            1.8504    -0.4356     3.5634 H            1    LIG   0.0000
  65 H            2.7369    -1.2343     5.6417 H            1    LIG   0.0000
@<TRIPOS>BOND
   1        1        2 1
   2        2        3 ar
   3        3        4 ar
   4        4        5 ar
   5        5        6 1
   6        6        7 2
   7        6        8 1
   8        8        9 1
   9        9       10 1
  10       10       11 1
  11       11       12 am
  12       12       13 2
  13       12       14 1
  14       14       15 ar
  15       15       16 ar
  16       16       17 1
  17       17       18 1
  18       18       19 am
  19       19       20 2
  20       19       21 1
  21       21       22 ar
  22       22       23 ar
  23       23       24 ar
  24       24       25 ar
  25       25       26 ar
  26       26       21 ar
  27       26       27 1
  28       27       18 am
  29       27       28 2
  30       16       29 ar
  31       29       30 ar
  32       30       31 1
  33       30       32 ar
  34       32       14 ar
  35       32       33 1
  36       11       34 1
  37       34       35 1
  38       35        8 1
  39        5       36 ar
  40       36       37 ar
  41       37        2 ar
  42        1       38 1
  43        1       39 1
  44        1       40 1
  45        3       41 1
  46        4       42 1
  47        8       43 1
  48        9       44 1
  49        9       45 1
  50       10       46 1
  51       10       47 1
  52       15       48 1
  53       17       49 1
  54       17       50 1
  55       22       51 1
  56       23       52 1
  57       24       53 1
  58       25       54 1
  59       29       55 1
  60       31       56 1
  61       31       57 1
  62       31       58 1
  63       33       59 1
  64       34       60 1
  65       34       61 1
  66       35       62 1
  67       35       63 1
  68       36       64 1
  69       37       65 1

@<TRIPOS>MOLECULE

  65   69
SMALL
USER_CHARGES
@<TRIPOS>ATOM
   1 C1           2.5980    -3.6874     6.7325 C.3          1    LIG   0.0000
   2 C2           2.0372    -3.1802     5.4147 C.ar         1    LIG   0.0000
   3 C3           1.3348    -4.0487     4.5861 C.ar         1    LIG   0.0000
   4 C4           0.8180    -3.5920     3.3782 C.ar         1    LIG   0.0000
   5 C5           1.0140    -2.2638     3.0142 C.ar         1    LIG   0.0000
   6 C6           0.4770    -1.7828     1.7563 C.2          1    LIG   0.0000
   7 O7          -0.1306    -2.5286     1.0390 O.2          1    LIG   0.0000
   8 C8           0.6838    -0.3339     1.3461 C.3          1    LIG   0.0000
   9 C9           2.1633    -0.0007     1.2331 C.3          1    LIG   0.0000
  10 C10          2.3415     1.4944     1.0140 C.3          1    LIG   0.0000
  11 N11          1.0781     2.1230     0.6036 N.am         1    LIG   0.0000
  12 C12          0.8488     3.4259     1.0392 C.2          1    LIG   0.0000
  13 O13         -0.1656     3.9904     0.7353 O.2          1    LIG   0.0000
  14 C14          1.8360     4.1005     1.8601 C.ar         1    LIG   0.0000
  15 C15          2.8409     4.8469     1.2529 C.ar         1    LIG   0.0000
  16 C16          3.7843     5.4907     2.0470 C.ar         1    LIG   0.0000
  17 C17          4.8818     6.3067     1.3833 C.3          1    LIG   0.0000
  18 N18          4.4274     7.6959     1.2166 N.am         1    LIG   0.0000
  19 C19          3.9337     8.2477     0.0366 C.2          1    LIG   0.0000
  20 O20          3.8049     7.6610    -1.0246 O.2          1    LIG   0.0000
  21 C21          3.6034     9.6271     0.2918 C.ar         1    LIG   0.0000
  22 C22          3.0880    10.5719    -0.5871 C.ar         1    LIG   0.0000
  23 C23          2.8621    11.8494    -0.0901 C.ar         1    LIG   0.0000
  24 C24          3.1491    12.1385     1.2399 C.ar         1    LIG   0.0000
  25 C25          3.6643    11.1643     2.0871 C.ar         1    LIG   0.0000
  26 C26          3.8989     9.8782     1.6097 C.ar         1    LIG   0.0000
  27 C27          4.4227     8.6692     2.2102 C.2          1    LIG   0.0000
  28 O28          4.7851     8.5363     3.3670 O.2          1    LIG   0.0000
  29 C29          3.7351     5.3971     3.4341 C.ar         1    LIG   0.0000
  30 C30          2.7252     4.6476     4.0285 C.ar         1    LIG   0.0000
  31 C31          2.6883     4.5573     5.5456 C.3          1    LIG   0.0000
  32 C32          1.7753     3.9982     3.2462 C.ar         1    LIG   0.0000
  33 O33          0.8070     3.2773     3.8521 O.3          1    LIG   0.0000
  34 C34          0.0434     1.4698    -0.2135 C.3          1    LIG   0.0000
  35 C35          0.0478    -0.0352    -0.0023 C.3          1    LIG   0.0000
  36 C36          1.7163    -1.3883     3.8364 C.ar         1    LIG   0.0000
  37 C37          2.2296    -1.8534     5.0423 C.ar         1    LIG   0.0000
  38 H            3.0708    -2.9420     7.2024 H            1    LIG   0.0000
  39 H            1.8504    -4.0220     7.3061 H            1    LIG   0.0000
  40 H            3.2419    -4.4320     6.5562 H            1    LIG   0.0000
  41 H            1.2013    -5.0016     4.8588 H            1    LIG   0.0000
  42 H            0.3114    -4.2113     2.7784 H            1    LIG   0.0000
  43 H            0.2707     0.2596     2.0369 H            1    LIG   0.0000
  44 H            2.5573    -0.4984     0.4604 H            1    LIG   0.0000
  45 H            2.6294    -0.2703     2.0758 H            1    LIG   0.0000
  46 H            2.6536     1.9145     1.8661 H            1    LIG   0.0000
  47 H            3.0261     1.6406     0.3000 H            1    LIG   0.0000
  48 H            2.8845     4.9198     0.2565 H            1    LIG   0.0000
  49 H            5.7016     6.2905     1.9556 H            1    LIG   0.0000
  50 H            5.0928     5.9153     0.4876 H            1    LIG   0.0000
  51 H            2.8876    10.3415    -1.5393 H            1    LIG   0.0000
  52 H            2.4934    12.5609    -0.6883 H            1    LIG   0.0000
  53 H            2.9824    13.0597     1.5914 H            1    LIG   0.0000
  54 H            3.8667    11.3878     3.0406 H            1    LIG   0.0000
  55 H            4.4176     5.8630     3.9971 H            1    LIG   0.0000
  56 H            3.4459     5.0853     5.9294 H            1    LIG   0.0000
  57 H            1.8214     4.9265     5.8805 H            1    LIG   0.0000
  58 H            2.7735     3.6009     5.8248 H            1    LIG   0.0000
  59 H            0.7799     3.2156     4.8498 H            1    LIG   0.0000
  60 H            0.2184     1.6645    -1.1786 H            1    LIG   0.0000
  61 H           -0.8524     1.8328     0.0428 H            1    LIG   0.0000
  62 H           -0.8908    -0.3801    -0.0159 H            1    LIG   0.0000
  63 H            0.5754    -0.4759    -0.7286 H            1    LIG   0.0000
  64 H            1.8504    -0.4356     3.5634 H            1    LIG   0.0000
  65 H            2.7369    -1.2343     5.6417 H            1    LIG   0.0000
@<TRIPOS>BOND
   1        1        2 1
   2        2        3 ar
   3        3        4 ar
   4        4        5 ar
   5        5        6 1
   6        6        7 2
   7        6        8 1
   8        8        9 1
   9        9       10 1
  10       10       11 1
  11       11       12 am
  12       12       13 2
  13       12       14 1
  14       14       15 ar
  15       15       16 ar
  16       16       17 1
  17       17       18 1
  18       18       19 am
  19       19       20 2
  20       19       21 1
  21       21       22 ar
  22       22       23 ar
  23       23       24 ar
  24       24       25 ar
  25       25       26 ar
  26       26       21 ar
  27       26       27 1
  28       27       18 am
  29       27       28 2
  30       16       29 ar
  31       29       30 ar
  32       30       31 1
  33       30       32 ar
  34       32       14 ar
  35       32       33 1
  36       11       34 1
  37       34       35 1
  38       35        8 1
  39        5       36 ar
  40       36       37 ar
  41       37        2 ar
  42        1       38 1
  43        1       39 1
  44        1       40 1
  45        3       41 1
  46        4       42 1
  47        8       43 1
  48        9       44 1
  49        9       45 1
  50       10       46 1
  51       10       47 1
  52       15       48 1
  53       17       49 1
  54       17       50 1
  55       22       51 1
  56       23       52 1
  57       24       53 1
  58       25       54 1
  59       29       55 1
  60       31       56 1
  61       31       57 1
  62       31       58 1
  63       33       59 1
  64       34       60 1
  65       34       61 1
  66       35       62 1
  67       35       63 1
  68       36       64 1
  69       37       65 1

@<TRIPOS>MOLECULE

  65   69
SMALL
USER_CHARGES
@<TRIPOS>ATOM
   1 C1          -4.8223    -3.8843     2.3966 C.3          1    LIG   0.0000
   2 C2          -3.4197    -3.3256     2.2262 C.ar         1    LIG   0.0000
   3 C3          -2.3202    -4.1498     2.4405 C.ar         1    LIG   0.0000
   4 C4          -1.0329    -3.6459     2.2862 C.ar         1    LIG   0.0000
   5 C5          -0.8637    -2.3152     1.9182 C.ar         1    LIG   0.0000
   6 C6           0.4760    -1.7854     1.7558 C.2          1    LIG   0.0000
   7 O7           1.4274    -2.4935     1.9386 O.2          1    LIG   0.0000
   8 C8           0.6755    -0.3329     1.3539 C.3          1    LIG   0.0000
   9 C9           0.0304    -0.0410     0.0087 C.3          1    LIG   0.0000
  10 C10          0.0180     1.4644    -0.2082 C.3          1    LIG   0.0000
  11 N11          1.0492     2.1230     0.6072 N.am         1    LIG   0.0000
  12 C12          0.8007     3.4233     1.0333 C.2          1    LIG   0.0000
  13 O13         -0.2261     3.9670     0.7333 O.2          1    LIG   0.0000
  14 C14          1.7825     4.1221     1.8402 C.ar         1    LIG   0.0000
  15 C15          1.7270     4.0255     3.2270 C.ar         1    LIG   0.0000
  16 C16          2.6720     4.6989     3.9941 C.ar         1    LIG   0.0000
  17 C17          2.6115     4.5929     5.5093 C.3          1    LIG   0.0000
  18 N18          3.4202     3.4471     5.9534 N.am         1    LIG   0.0000
  19 C19          2.9217     2.1939     6.3021 C.2          1    LIG   0.0000
  20 O20          1.7474     1.8654     6.2878 O.2          1    LIG   0.0000
  21 C21          4.0342     1.3593     6.6800 C.ar         1    LIG   0.0000
  22 C22          4.0201     0.0371     7.1073 C.ar         1    LIG   0.0000
  23 C23          5.2416    -0.5448     7.4221 C.ar         1    LIG   0.0000
  24 C24          6.4146     0.1932     7.3015 C.ar         1    LIG   0.0000
  25 C25          6.3856     1.5144     6.8704 C.ar         1    LIG   0.0000
  26 C26          5.1726     2.1171     6.5505 C.ar         1    LIG   0.0000
  27 C27          4.8040     3.4408     6.0938 C.2          1    LIG   0.0000
  28 O28          5.5665     4.3666     5.8733 O.2          1    LIG   0.0000
  29 C29          3.6667     5.4642     3.3938 C.ar         1    LIG   0.0000
  30 C30          3.7109     5.5523     2.0062 C.ar         1    LIG   0.0000
  31 C31          4.8053     6.3933     1.3691 C.3          1    LIG   0.0000
  32 C32          2.7717     4.8841     1.2269 C.ar         1    LIG   0.0000
  33 O33          2.8400     4.9892    -0.1180 O.3          1    LIG   0.0000
  34 C34          2.3214     1.5098     1.0177 C.3          1    LIG   0.0000
  35 C35          2.1498     0.0157     1.2390 C.3          1    LIG   0.0000
  36 C36         -1.9579    -1.4833     1.7028 C.ar         1    LIG   0.0000
  37 C37         -3.2414    -1.9953     1.8593 C.ar         1    LIG   0.0000
  38 H           -5.4923    -3.1666     2.2067 H            1    LIG   0.0000
  39 H           -4.9581    -4.6439     1.7606 H            1    LIG   0.0000
  40 H           -4.9396    -4.2100     3.3348 H            1    LIG   0.0000
  41 H           -2.4550    -5.1046     2.7055 H            1    LIG   0.0000
  42 H           -0.2382    -4.2336     2.4381 H            1    LIG   0.0000
  43 H            0.2576     0.2545     2.0470 H            1    LIG   0.0000
  44 H           -0.9068    -0.3898     0.0018 H            1    LIG   0.0000
  45 H            0.5555    -0.4817    -0.7193 H            1    LIG   0.0000
  46 H            0.1923     1.6571    -1.1739 H            1    LIG   0.0000
  47 H           -0.8795     1.8241     0.0467 H            1    LIG   0.0000
  48 H            1.0155     3.4781     3.6675 H            1    LIG   0.0000
  49 H            2.9707     5.4324     5.9169 H            1    LIG   0.0000
  50 H            1.6626     4.4624     5.7967 H            1    LIG   0.0000
  51 H            3.1647    -0.4751     7.1851 H            1    LIG   0.0000
  52 H            5.2777    -1.4938     7.7352 H            1    LIG   0.0000
  53 H            7.2906    -0.2325     7.5281 H            1    LIG   0.0000
  54 H            7.2373     2.0323     6.7900 H            1    LIG   0.0000
  55 H            4.3418     5.9451     3.9531 H            1    LIG   0.0000
  56 H            5.3789     6.7917     2.0849 H            1    LIG   0.0000
  57 H            5.3660     5.8163     0.7753 H            1    LIG   0.0000
  58 H            4.3910     7.1252     0.8281 H            1    LIG   0.0000
  59 H            3.5584     5.5418    -0.5405 H            1    LIG   0.0000
  60 H            2.6312     1.9344     1.8685 H            1    LIG   0.0000
  61 H            3.0041     1.6597     0.3026 H            1    LIG   0.0000
  62 H            2.5471    -0.4802     0.4668 H            1    LIG   0.0000
  63 H            2.6183    -0.2492     2.0818 H            1    LIG   0.0000
  64 H           -1.8231    -0.5283     1.4386 H            1    LIG   0.0000
  65 H           -4.0361    -1.4074     1.7083 H            1    LIG   0.0000
@<TRIPOS>BOND
   1        1        2 1
   2        2        3 ar
   3        3        4 ar
   4        4        5 ar
   5        5        6 1
   6        6        7 2
   7        6        8 1
   8        8        9 1
   9        9       10 1
  10       10       11 1
  11       11       12 am
  12       12       13 2
  13       12       14 1
  14       14       15 ar
  15       15       16 ar
  16       16       17 1
  17       17       18 1
  18       18       19 am
  19       19       20 2
  20       19       21 1
  21       21       22 ar
  22       22       23 ar
  23       23       24 ar
  24       24       25 ar
  25       25       26 ar
  26       26       21 ar
  27       26       27 1
  28       27       18 am
  29       27       28 2
  30       16       29 ar
  31       29       30 ar
  32       30       31 1
  33       30       32 ar
  34       32       14 ar
  35       32       33 1
  36       11       34 1
  37       34       35 1
  38       35        8 1
  39        5       36 ar
  40       36       37 ar
  41       37        2 ar
  42        1       38 1
  43        1       39 1
  44        1       40 1
  45        3       41 1
  46        4       42 1
  47        8       43 1
  48        9       44 1
  49        9       45 1
  50       10       46 1
  51       10       47 1
  52       15       48 1
  53       17       49 1
  54       17       50 1
  55       22       51 1
  56       23       52 1
  57       24       53 1
  58       25       54 1
  59       29       55 1
  60       31       56 1
  61       31       57 1
  62       31       58 1
  63       33       59 1
  64       34       60 1
  65       34       61 1
  66       35       62 1
  67       35       63 1
  68       36       64 1
  69       37       65 1

@<TRIPOS>MOLECULE

  65   69
SMALL
USER_CHARGES
@<TRIPOS>ATOM
   1 C1           2.6101    -3.7090     6.7190 C.3          1    LIG   0.0000
   2 C2           2.0458    -3.1968     5.4046 C.ar         1    LIG   0.0000
   3 C3           1.3469    -4.0638     4.5715 C.ar         1    LIG   0.0000
   4 C4           0.8270    -3.6024     3.3667 C.ar         1    LIG   0.0000
   5 C5           1.0163    -2.2712     3.0104 C.ar         1    LIG   0.0000
   6 C6           0.4760    -1.7854     1.7558 C.2          1    LIG   0.0000
   7 O7          -0.1287    -2.5299     1.0346 O.2          1    LIG   0.0000
   8 C8           0.6755    -0.3329     1.3539 C.3          1    LIG   0.0000
   9 C9           0.0304    -0.0410     0.0087 C.3          1    LIG   0.0000
  10 C10          0.0180     1.4644    -0.2082 C.3          1    LIG   0.0000
  11 N11          1.0492     2.1230     0.6072 N.am         1    LIG   0.0000
  12 C12          0.8007     3.4233     1.0333 C.2          1    LIG   0.0000
  13 O13         -0.2261     3.9670     0.7333 O.2          1    LIG   0.0000
  14 C14          1.7825     4.1221     1.8402 C.ar         1    LIG   0.0000
  15 C15          2.7688     4.8811     1.2184 C.ar         1    LIG   0.0000
  16 C16          3.7071     5.5482     1.9992 C.ar         1    LIG   0.0000
  17 C17          4.7844     6.3780     1.3196 C.3          1    LIG   0.0000
  18 N18          5.9598     5.5338     1.0554 N.am         1    LIG   0.0000
  19 C19          7.1178     5.4974     1.8289 C.2          1    LIG   0.0000
  20 O20          7.3235     6.1557     2.8346 O.2          1    LIG   0.0000
  21 C21          8.0240     4.5483     1.2330 C.ar         1    LIG   0.0000
  22 C22          9.2988     4.1865     1.6515 C.ar         1    LIG   0.0000
  23 C23          9.9765     3.2428     0.8898 C.ar         1    LIG   0.0000
  24 C24          9.3742     2.6992    -0.2401 C.ar         1    LIG   0.0000
  25 C25          8.0965     3.0884    -0.6252 C.ar         1    LIG   0.0000
  26 C26          7.4000     4.0329     0.1231 C.ar         1    LIG   0.0000
  27 C27          6.0945     4.6455    -0.0064 C.2          1    LIG   0.0000
  28 O28          5.2741     4.4186    -0.8797 O.2          1    LIG   0.0000
  29 C29          3.6711     5.4653     3.3874 C.ar         1    LIG   0.0000
  30 C30          2.6797     4.7030     3.9965 C.ar         1    LIG   0.0000
  31 C31          2.6570     4.6249     5.5145 C.3          1    LIG   0.0000
  32 C32          1.7351     4.0303     3.2276 C.ar         1    LIG   0.0000
  33 O33          0.7849     3.2975     3.8475 O.3          1    LIG   0.0000
  34 C34          2.3214     1.5098     1.0177 C.3          1    LIG   0.0000
  35 C35          2.1498     0.0157     1.2390 C.3          1    LIG   0.0000
  36 C36          1.7150    -1.3971     3.8372 C.ar         1    LIG   0.0000
  37 C37          2.2315    -1.8669     5.0399 C.ar         1    LIG   0.0000
  38 H            3.0797    -2.9642     7.1929 H            1    LIG   0.0000
  39 H            1.8645    -4.0506     7.2912 H            1    LIG   0.0000
  40 H            3.2574    -4.4494     6.5378 H            1    LIG   0.0000
  41 H            1.2182    -5.0188     4.8386 H            1    LIG   0.0000
  42 H            0.3229    -4.2206     2.7636 H            1    LIG   0.0000
  43 H            0.2576     0.2545     2.0470 H            1    LIG   0.0000
  44 H           -0.9068    -0.3898     0.0018 H            1    LIG   0.0000
  45 H            0.5555    -0.4817    -0.7193 H            1    LIG   0.0000
  46 H            0.1923     1.6571    -1.1739 H            1    LIG   0.0000
  47 H           -0.8795     1.8241     0.0467 H            1    LIG   0.0000
  48 H            2.8029     4.9464     0.2212 H            1    LIG   0.0000
  49 H            4.4321     6.7387     0.4560 H            1    LIG   0.0000
  50 H            5.0463     7.1369     1.9158 H            1    LIG   0.0000
  51 H            9.7118     4.5893     2.4683 H            1    LIG   0.0000
  52 H           10.8969     2.9544     1.1538 H            1    LIG   0.0000
  53 H            9.8671     2.0190    -0.7827 H            1    LIG   0.0000
  54 H            7.6774     2.6894    -1.4407 H            1    LIG   0.0000
  55 H            4.3498     5.9480     3.9409 H            1    LIG   0.0000
  56 H            3.4082     5.1694     5.8876 H            1    LIG   0.0000
  57 H            1.7864     4.9813     5.8537 H            1    LIG   0.0000
  58 H            2.7615     3.6724     5.8008 H            1    LIG   0.0000
  59 H            0.7671     3.2437     4.8459 H            1    LIG   0.0000
  60 H            2.6312     1.9344     1.8685 H            1    LIG   0.0000
  61 H            3.0041     1.6597     0.3026 H            1    LIG   0.0000
  62 H            2.5471    -0.4802     0.4668 H            1    LIG   0.0000
  63 H            2.6183    -0.2492     2.0818 H            1    LIG   0.0000
  64 H            1.8443    -0.4423     3.5697 H            1    LIG   0.0000
  65 H            2.7363    -1.2489     5.6426 H            1    LIG   0.0000
@<TRIPOS>BOND
   1        1        2 1
   2        2        3 ar
   3        3        4 ar
   4        4        5 ar
   5        5        6 1
   6        6        7 2
   7        6        8 1
   8        8        9 1
   9        9       10 1
  10       10       11 1
  11       11       12 am
  12       12       13 2
  13       12       14 1
  14       14       15 ar
  15       15       16 ar
  16       16       17 1
  17       17       18 1
  18       18       19 am
  19       19       20 2
  20       19       21 1
  21       21       22 ar
  22       22       23 ar
  23       23       24 ar
  24       24       25 ar
  25       25       26 ar
  26       26       21 ar
  27       26       27 1
  28       27       18 am
  29       27       28 2
  30       16       29 ar
  31       29       30 ar
  32       30       31 1
  33       30       32 ar
  34       32       14 ar
  35       32       33 1
  36       11       34 1
  37       34       35 1
  38       35        8 1
  39        5       36 ar
  40       36       37 ar
  41       37        2 ar
  42        1       38 1
  43        1       39 1
  44        1       40 1
  45        3       41 1
  46        4       42 1
  47        8       43 1
  48        9       44 1
  49        9       45 1
  50       10       46 1
  51       10       47 1
  52       15       48 1
  53       17       49 1
  54       17       50 1
  55       22       51 1
  56       23       52 1
  57       24       53 1
  58       25       54 1
  59       29       55 1
  60       31       56 1
  61       31       57 1
  62       31       58 1
  63       33       59 1
  64       34       60 1
  65       34       61 1
  66       35       62 1
  67       35       63 1
  68       36       64 1
  69       37       65 1

@<TRIPOS>MOLECULE

  65   69
SMALL
USER_CHARGES
@<TRIPOS>ATOM
   1 C1          -1.0982    -6.1039    -2.1506 C.3          1    LIG   0.0000
   2 C2          -0.3802    -4.9774    -1.4269 C.ar         1    LIG   0.0000
   3 C3           0.9917    -5.0603    -1.2146 C.ar         1    LIG   0.0000
   4 C4           1.6563    -4.0328    -0.5531 C.ar         1    LIG   0.0000
   5 C5           0.9330    -2.9305    -0.1098 C.ar         1    LIG   0.0000
   6 C6           1.6213    -1.8569     0.5798 C.2          1    LIG   0.0000
   7 O7           2.8051    -1.9239     0.7640 O.2          1    LIG   0.0000
   8 C8           0.8427    -0.6456     1.0700 C.3          1    LIG   0.0000
   9 C9           0.1892     0.0259    -0.1280 C.3          1    LIG   0.0000
  10 C10         -0.0187     1.5131     0.1143 C.3          1    LIG   0.0000
  11 N11          1.3077     2.1419     0.1927 N.am         1    LIG   0.0000
  12 C12          1.5355     3.4683    -0.2138 C.2          1    LIG   0.0000
  13 O13          0.6297     4.1284    -0.6427 O.2          1    LIG   0.0000
  14 C14          2.8651     4.0390    -0.1147 C.ar         1    LIG   0.0000
  15 C15          3.2462     4.6960     1.0510 C.ar         1    LIG   0.0000
  16 C16          4.5231     5.2409     1.1383 C.ar         1    LIG   0.0000
  17 C17          4.9393     5.9582     2.4123 C.3          1    LIG   0.0000
  18 N18          4.5988     7.3853     2.3052 N.am         1    LIG   0.0000
  19 C19          5.4902     8.4059     1.9821 C.2          1    LIG   0.0000
  20 O20          6.6770     8.2647     1.7400 O.2          1    LIG   0.0000
  21 C21          4.7644     9.6510     1.9842 C.ar         1    LIG   0.0000
  22 C22          5.2391    10.9315     1.7272 C.ar         1    LIG   0.0000
  23 C23          4.3271    11.9768     1.8013 C.ar         1    LIG   0.0000
  24 C24          2.9981    11.7183     2.1204 C.ar         1    LIG   0.0000
  25 C25          2.5632    10.4221     2.3710 C.ar         1    LIG   0.0000
  26 C26          3.4602     9.3601     2.3029 C.ar         1    LIG   0.0000
  27 C27          3.3368     7.9326     2.5111 C.2          1    LIG   0.0000
  28 O28          2.3176     7.3317     2.8068 O.2          1    LIG   0.0000
  29 C29          5.4187     5.1374     0.0789 C.ar         1    LIG   0.0000
  30 C30          5.0252     4.4780    -1.0809 C.ar         1    LIG   0.0000
  31 C31          6.0181     4.3753    -2.2274 C.3          1    LIG   0.0000
  32 C32          3.7508     3.9285    -1.1818 C.ar         1    LIG   0.0000
  33 O33          3.3973     3.2947    -2.3209 O.3          1    LIG   0.0000
  34 C34          2.3894     1.3019     0.7277 C.3          1    LIG   0.0000
  35 C35          1.7462     0.3717     1.7467 C.3          1    LIG   0.0000
  36 C36         -0.4398    -2.8397    -0.3169 C.ar         1    LIG   0.0000
  37 C37         -1.0962    -3.8715    -0.9791 C.ar         1    LIG   0.0000
  38 H           -2.0723    -5.8885    -2.2193 H            1    LIG   0.0000
  39 H           -0.7144    -6.2086    -3.0681 H            1    LIG   0.0000
  40 H           -0.9804    -6.9561    -1.6407 H            1    LIG   0.0000
  41 H            1.5003    -5.8584    -1.5376 H            1    LIG   0.0000
  42 H            2.6428    -4.0861    -0.3981 H            1    LIG   0.0000
  43 H            0.1356    -0.9420     1.7121 H            1    LIG   0.0000
  44 H           -0.6979    -0.4032    -0.2977 H            1    LIG   0.0000
  45 H            0.7762    -0.0943    -0.9286 H            1    LIG   0.0000
  46 H           -0.5406     1.9115    -0.6399 H            1    LIG   0.0000
  47 H           -0.5132     1.6527     0.9722 H            1    LIG   0.0000
  48 H            2.6091     4.7756     1.8177 H            1    LIG   0.0000
  49 H            4.4581     5.5583     3.1924 H            1    LIG   0.0000
  50 H            5.9258     5.8598     2.5431 H            1    LIG   0.0000
  51 H            6.1988    11.0940     1.4980 H            1    LIG   0.0000
  52 H            4.6260    12.9147     1.6252 H            1    LIG   0.0000
  53 H            2.3467    12.4754     2.1703 H            1    LIG   0.0000
  54 H            1.6048    10.2524     2.6004 H            1    LIG   0.0000
  55 H            6.3346     5.5324     0.1504 H            1    LIG   0.0000
  56 H            6.8727     4.8262    -1.9696 H            1    LIG   0.0000
  57 H            6.1968     3.4122    -2.4284 H            1    LIG   0.0000
  58 H            5.6381     4.8201    -3.0384 H            1    LIG   0.0000
  59 H            4.0478     3.2255    -3.0772 H            1    LIG   0.0000
  60 H            3.0835     1.8710     1.1685 H            1    LIG   0.0000
  61 H            2.8111     0.7712    -0.0074 H            1    LIG   0.0000
  62 H            2.4651    -0.1118     2.2461 H            1    LIG   0.0000
  63 H            1.2032     0.9151     2.3870 H            1    LIG   0.0000
  64 H           -0.9485    -2.0419     0.0067 H            1    LIG   0.0000
  65 H           -2.0828    -3.8186    -1.1335 H            1    LIG   0.0000
@<TRIPOS>BOND
   1        1        2 1
   2        2        3 ar
   3        3        4 ar
   4        4        5 ar
   5        5        6 1
   6        6        7 2
   7        6        8 1
   8        8        9 1
   9        9       10 1
  10       10       11 1
  11       11       12 am
  12       12       13 2
  13       12       14 1
  14       14       15 ar
  15       15       16 ar
  16       16       17 1
  17       17       18 1
  18       18       19 am
  19       19       20 2
  20       19       21 1
  21       21       22 ar
  22       22       23 ar
  23       23       24 ar
  24       24       25 ar
  25       25       26 ar
  26       26       21 ar
  27       26       27 1
  28       27       18 am
  29       27       28 2
  30       16       29 ar
  31       29       30 ar
  32       30       31 1
  33       30       32 ar
  34       32       14 ar
  35       32       33 1
  36       11       34 1
  37       34       35 1
  38       35        8 1
  39        5       36 ar
  40       36       37 ar
  41       37        2 ar
  42        1       38 1
  43        1       39 1
  44        1       40 1
  45        3       41 1
  46        4       42 1
  47        8       43 1
  48        9       44 1
  49        9       45 1
  50       10       46 1
  51       10       47 1
  52       15       48 1
  53       17       49 1
  54       17       50 1
  55       22       51 1
  56       23       52 1
  57       24       53 1
  58       25       54 1
  59       29       55 1
  60       31       56 1
  61       31       57 1
  62       31       58 1
  63       33       59 1
  64       34       60 1
  65       34       61 1
  66       35       62 1
  67       35       63 1
  68       36       64 1
  69       37       65 1

