@<TRIPOS>MOLECULE
*****
 65 69 0 0 0
SMALL
USER_CHARGES

@<TRIPOS>ATOM
      1 C1          3.7084   -6.1287    3.0954 C.3     1  LIG1        0.0000
      2 C2          3.4961   -4.6339    2.9252 C.3     1  LIG1        0.0000
      3 C3          4.0203   -3.7532    3.8652 C.3     1  LIG1        0.0000
      4 C4          3.8304   -2.3833    3.7163 C.3     1  LIG1        0.0000
      5 C5          3.1129   -1.9117    2.6219 C.3     1  LIG1        0.0000
      6 C6          2.9126   -0.4848    2.4622 C.2     1  LIG1        0.0000
      7 O7          3.3642    0.2787    3.2703 O.2     1  LIG1        0.0000
      8 C8          2.1302    0.0444    1.2705 C.3     1  LIG1        0.0000
      9 C9          2.0890    1.5622    1.3753 C.3     1  LIG1        0.0000
     10 C10         1.2603    2.2009    0.2690 C.3     1  LIG1        0.0000
     11 N11        -0.0269    1.5131    0.0802 N.am    1  LIG1        0.0000
     12 C12        -1.1286    2.2716   -0.3251 C.2     1  LIG1        0.0000
     13 O13        -2.1935    1.7431   -0.4886 O.2     1  LIG1        0.0000
     14 C14        -0.9849    3.6975   -0.5480 C.3     1  LIG1        0.0000
     15 C15        -0.6342    4.1640   -1.8109 C.3     1  LIG1        0.0000
     16 C16        -0.4981    5.5330   -2.0167 C.3     1  LIG1        0.0000
     17 C17        -0.1154    6.0425   -3.3968 C.3     1  LIG1        0.0000
     18 N18        -1.3337    6.2890   -4.1837 N.am    1  LIG1        0.0000
     19 C19        -1.9240    7.5340   -4.3889 C.2     1  LIG1        0.0000
     20 O20        -1.5170    8.5963   -3.9497 O.2     1  LIG1        0.0000
     21 C21        -3.0942    7.3445   -5.2085 C.3     1  LIG1        0.0000
     22 C22        -3.9984    8.2972   -5.6621 C.3     1  LIG1        0.0000
     23 C23        -5.0591    7.8507   -6.4403 C.3     1  LIG1        0.0000
     24 C24        -5.1814    6.4974   -6.7376 C.3     1  LIG1        0.0000
     25 C25        -4.2549    5.5757   -6.2639 C.3     1  LIG1        0.0000
     26 C26        -3.1851    6.0013   -5.4820 C.3     1  LIG1        0.0000
     27 C27        -2.0815    5.3177   -4.8408 C.2     1  LIG1        0.0000
     28 O28        -1.8553    4.1198   -4.8772 O.2     1  LIG1        0.0000
     29 C29        -0.7070    6.4364   -0.9796 C.3     1  LIG1        0.0000
     30 C30        -1.0573    5.9567    0.2783 C.3     1  LIG1        0.0000
     31 C31        -1.2814    6.9596    1.3985 C.3     1  LIG1        0.0000
     32 C32        -1.1966    4.5899    0.4981 C.3     1  LIG1        0.0000
     33 O33        -1.5370    4.1542    1.7305 O.2     1  LIG1        0.0000
     34 C34        -0.2102    0.0692    0.3027 C.3     1  LIG1        0.0000
     35 C35         0.6992   -0.4591    1.4029 C.3     1  LIG1        0.0000
     36 C36         2.5841   -2.7857    1.6773 C.3     1  LIG1        0.0000
     37 C37         2.7786   -4.1537    1.8340 C.3     1  LIG1        0.0000
     38 H           3.2711   -6.6156    2.3393 H       1  LIG1        0.0000
     39 H           4.6884   -6.3280    3.0978 H       1  LIG1        0.0000
     40 H           3.3056   -6.4262    3.9609 H       1  LIG1        0.0000
     41 H           4.5337   -4.1047    4.6481 H       1  LIG1        0.0000
     42 H           4.2055   -1.7447    4.3884 H       1  LIG1        0.0000
     43 H           2.5404   -0.2492    0.4071 H       1  LIG1        0.0000
     44 H           3.0237    1.9130    1.3191 H       1  LIG1        0.0000
     45 H           1.6918    1.8120    2.2584 H       1  LIG1        0.0000
     46 H           1.0845    3.1560    0.5073 H       1  LIG1        0.0000
     47 H           1.7770    2.1603   -0.5862 H       1  LIG1        0.0000
     48 H          -0.4817    3.5223   -2.5625 H       1  LIG1        0.0000
     49 H           0.4010    6.8941   -3.3064 H       1  LIG1        0.0000
     50 H           0.4481    5.3586   -3.8602 H       1  LIG1        0.0000
     51 H          -3.8900    9.2655   -5.4372 H       1  LIG1        0.0000
     52 H          -5.7343    8.5020   -6.7866 H       1  LIG1        0.0000
     53 H          -5.9464    6.1832   -7.2998 H       1  LIG1        0.0000
     54 H          -4.3572    4.6059   -6.4852 H       1  LIG1        0.0000
     55 H          -0.6067    7.4189   -1.1365 H       1  LIG1        0.0000
     56 H          -1.1364    7.8858    1.0507 H       1  LIG1        0.0000
     57 H          -2.2175    6.8744    1.7398 H       1  LIG1        0.0000
     58 H          -0.6378    6.7781    2.1421 H       1  LIG1        0.0000
     59 H          -1.6850    4.8111    2.4698 H       1  LIG1        0.0000
     60 H          -0.0049   -0.4169   -0.5468 H       1  LIG1        0.0000
     61 H          -1.1613   -0.0992    0.5616 H       1  LIG1        0.0000
     62 H           0.3365   -0.1649    2.2872 H       1  LIG1        0.0000
     63 H           0.7058   -1.4582    1.3610 H       1  LIG1        0.0000
     64 H           2.0701   -2.4342    0.8948 H       1  LIG1        0.0000
     65 H           2.4029   -4.7923    1.1624 H       1  LIG1        0.0000
@<TRIPOS>BOND
     1     1     2    1
     2     2     3   ar
     3     3     4   ar
     4     4     5   ar
     5     5     6    1
     6     6     7    2
     7     6     8    1
     8     8     9    1
     9     9    10    1
    10    10    11    1
    11    11    12   am
    12    12    13    2
    13    12    14    1
    14    14    15   ar
    15    15    16   ar
    16    16    17    1
    17    17    18    1
    18    18    19   am
    19    19    20    2
    20    19    21    1
    21    21    22   ar
    22    22    23   ar
    23    23    24   ar
    24    24    25   ar
    25    25    26   ar
    26    26    21   ar
    27    26    27    1
    28    27    18   am
    29    27    28    2
    30    16    29   ar
    31    29    30   ar
    32    30    31    1
    33    30    32   ar
    34    32    14   ar
    35    32    33    1
    36    11    34    1
    37    34    35    1
    38    35     8    1
    39     5    36   ar
    40    36    37   ar
    41    37     2   ar
    42     1    38    1
    43     1    39    1
    44     1    40    1
    45     3    41    1
    46     4    42    1
    47     8    43    1
    48     9    44    1
    49     9    45    1
    50    10    46    1
    51    10    47    1
    52    15    48    1
    53    17    49    1
    54    17    50    1
    55    22    51    1
    56    23    52    1
    57    24    53    1
    58    25    54    1
    59    29    55    1
    60    31    56    1
    61    31    57    1
    62    31    58    1
    63    33    59    1
    64    34    60    1
    65    34    61    1
    66    35    62    1
    67    35    63    1
    68    36    64    1
    69    37    65    1
