@<TRIPOS>MOLECULE
*****
 65 69 0 0 0
SMALL
USER_CHARGES

@<TRIPOS>ATOM
      1 C1          2.5980   -3.6874    6.7325 C.3     1  LIG1        0.0000
      2 C2          2.0372   -3.1802    5.4147 C.3     1  LIG1        0.0000
      3 C3          1.3348   -4.0487    4.5861 C.3     1  LIG1        0.0000
      4 C4          0.8180   -3.5920    3.3782 C.3     1  LIG1        0.0000
      5 C5          1.0140   -2.2638    3.0142 C.3     1  LIG1        0.0000
      6 C6          0.4770   -1.7828    1.7563 C.2     1  LIG1        0.0000
      7 O7         -0.1306   -2.5286    1.0390 O.2     1  LIG1        0.0000
      8 C8          0.6838   -0.3339    1.3461 C.3     1  LIG1        0.0000
      9 C9          2.1633   -0.0007    1.2331 C.3     1  LIG1        0.0000
     10 C10         2.3415    1.4944    1.0140 C.3     1  LIG1        0.0000
     11 N11         1.0781    2.1230    0.6036 N.am    1  LIG1        0.0000
     12 C12         0.8488    3.4259    1.0392 C.2     1  LIG1        0.0000
     13 O13        -0.1656    3.9904    0.7353 O.2     1  LIG1        0.0000
     14 C14         1.8360    4.1005    1.8601 C.3     1  LIG1        0.0000
     15 C15         1.7671    3.9935    3.2455 C.3     1  LIG1        0.0000
     16 C16         2.7175    4.6437    4.0260 C.3     1  LIG1        0.0000
     17 C17         2.6423    4.5262    5.5397 C.3     1  LIG1        0.0000
     18 N18         3.4268    3.3626    5.9809 N.am    1  LIG1        0.0000
     19 C19         2.9032    2.1157    6.3150 C.2     1  LIG1        0.0000
     20 O20         1.7234    1.8083    6.2882 O.2     1  LIG1        0.0000
     21 C21         3.9974    1.2583    6.6950 C.3     1  LIG1        0.0000
     22 C22         3.9562   -0.0669    7.1111 C.3     1  LIG1        0.0000
     23 C23         5.1646   -0.6731    7.4311 C.3     1  LIG1        0.0000
     24 C24         6.3514    0.0449    7.3265 C.3     1  LIG1        0.0000
     25 C25         6.3496    1.3699    6.9062 C.3     1  LIG1        0.0000
     26 C26         5.1502    1.9967    6.5813 C.3     1  LIG1        0.0000
     27 C27         4.8090    3.3305    6.1327 C.2     1  LIG1        0.0000
     28 O28         5.5897    4.2444    5.9263 O.2     1  LIG1        0.0000
     29 C29         3.7306    5.3959    3.4404 C.3     1  LIG1        0.0000
     30 C30         3.7881    5.4947    2.0540 C.3     1  LIG1        0.0000
     31 C31         4.9026    6.3212    1.4331 C.3     1  LIG1        0.0000
     32 C32         2.8438    4.8498    1.2613 C.3     1  LIG1        0.0000
     33 O33         2.9252    4.9647   -0.0819 O.2     1  LIG1        0.0000
     34 C34         0.0434    1.4698   -0.2135 C.3     1  LIG1        0.0000
     35 C35         0.0478   -0.0352   -0.0023 C.3     1  LIG1        0.0000
     36 C36         1.7163   -1.3883    3.8364 C.3     1  LIG1        0.0000
     37 C37         2.2296   -1.8534    5.0423 C.3     1  LIG1        0.0000
     38 H           3.0708   -2.9420    7.2024 H       1  LIG1        0.0000
     39 H           1.8504   -4.0220    7.3061 H       1  LIG1        0.0000
     40 H           3.2419   -4.4320    6.5562 H       1  LIG1        0.0000
     41 H           1.2013   -5.0016    4.8588 H       1  LIG1        0.0000
     42 H           0.3114   -4.2113    2.7784 H       1  LIG1        0.0000
     43 H           0.2707    0.2596    2.0369 H       1  LIG1        0.0000
     44 H           2.5573   -0.4984    0.4604 H       1  LIG1        0.0000
     45 H           2.6294   -0.2703    2.0758 H       1  LIG1        0.0000
     46 H           2.6536    1.9145    1.8661 H       1  LIG1        0.0000
     47 H           3.0261    1.6406    0.3000 H       1  LIG1        0.0000
     48 H           1.0423    3.4552    3.6755 H       1  LIG1        0.0000
     49 H           3.0129    5.3558    5.9573 H       1  LIG1        0.0000
     50 H           1.6888    4.4103    5.8181 H       1  LIG1        0.0000
     51 H           3.0913   -0.5644    7.1776 H       1  LIG1        0.0000
     52 H           5.1812   -1.6251    7.7365 H       1  LIG1        0.0000
     53 H           7.2178   -0.3983    7.5568 H       1  LIG1        0.0000
     54 H           7.2109    1.8732    6.8372 H       1  LIG1        0.0000
     55 H           4.4094    5.8602    4.0093 H       1  LIG1        0.0000
     56 H           5.4771    6.7034    2.1569 H       1  LIG1        0.0000
     57 H           5.4579    5.7392    0.8391 H       1  LIG1        0.0000
     58 H           4.5059    7.0648    0.8948 H       1  LIG1        0.0000
     59 H           3.6569    5.5078   -0.4939 H       1  LIG1        0.0000
     60 H           0.2184    1.6645   -1.1786 H       1  LIG1        0.0000
     61 H          -0.8524    1.8328    0.0428 H       1  LIG1        0.0000
     62 H          -0.8908   -0.3801   -0.0159 H       1  LIG1        0.0000
     63 H           0.5754   -0.4759   -0.7286 H       1  LIG1        0.0000
     64 H           1.8504   -0.4356    3.5634 H       1  LIG1        0.0000
     65 H           2.7369   -1.2343    5.6417 H       1  LIG1        0.0000
@<TRIPOS>BOND
     1     1     2    1
     2     2     3   ar
     3     3     4   ar
     4     4     5   ar
     5     5     6    1
     6     6     7    2
     7     6     8    1
     8     8     9    1
     9     9    10    1
    10    10    11    1
    11    11    12   am
    12    12    13    2
    13    12    14    1
    14    14    15   ar
    15    15    16   ar
    16    16    17    1
    17    17    18    1
    18    18    19   am
    19    19    20    2
    20    19    21    1
    21    21    22   ar
    22    22    23   ar
    23    23    24   ar
    24    24    25   ar
    25    25    26   ar
    26    26    21   ar
    27    26    27    1
    28    27    18   am
    29    27    28    2
    30    16    29   ar
    31    29    30   ar
    32    30    31    1
    33    30    32   ar
    34    32    14   ar
    35    32    33    1
    36    11    34    1
    37    34    35    1
    38    35     8    1
    39     5    36   ar
    40    36    37   ar
    41    37     2   ar
    42     1    38    1
    43     1    39    1
    44     1    40    1
    45     3    41    1
    46     4    42    1
    47     8    43    1
    48     9    44    1
    49     9    45    1
    50    10    46    1
    51    10    47    1
    52    15    48    1
    53    17    49    1
    54    17    50    1
    55    22    51    1
    56    23    52    1
    57    24    53    1
    58    25    54    1
    59    29    55    1
    60    31    56    1
    61    31    57    1
    62    31    58    1
    63    33    59    1
    64    34    60    1
    65    34    61    1
    66    35    62    1
    67    35    63    1
    68    36    64    1
    69    37    65    1
