@<TRIPOS>MOLECULE
*****
 65 69 0 0 0
SMALL
USER_CHARGES

@<TRIPOS>ATOM
      1 C1         -4.8223   -3.8843    2.3966 C.3     1  LIG1        0.0000
      2 C2         -3.4197   -3.3256    2.2262 C.3     1  LIG1        0.0000
      3 C3         -2.3202   -4.1498    2.4405 C.3     1  LIG1        0.0000
      4 C4         -1.0329   -3.6459    2.2862 C.3     1  LIG1        0.0000
      5 C5         -0.8637   -2.3152    1.9182 C.3     1  LIG1        0.0000
      6 C6          0.4760   -1.7854    1.7558 C.2     1  LIG1        0.0000
      7 O7          1.4274   -2.4935    1.9386 O.2     1  LIG1        0.0000
      8 C8          0.6755   -0.3329    1.3539 C.3     1  LIG1        0.0000
      9 C9          0.0304   -0.0410    0.0087 C.3     1  LIG1        0.0000
     10 C10         0.0180    1.4644   -0.2082 C.3     1  LIG1        0.0000
     11 N11         1.0492    2.1230    0.6072 N.am    1  LIG1        0.0000
     12 C12         0.8007    3.4233    1.0333 C.2     1  LIG1        0.0000
     13 O13        -0.2261    3.9670    0.7333 O.2     1  LIG1        0.0000
     14 C14         1.7825    4.1221    1.8402 C.3     1  LIG1        0.0000
     15 C15         1.7270    4.0255    3.2270 C.3     1  LIG1        0.0000
     16 C16         2.6720    4.6989    3.9941 C.3     1  LIG1        0.0000
     17 C17         2.6115    4.5929    5.5093 C.3     1  LIG1        0.0000
     18 N18         3.4202    3.4471    5.9534 N.am    1  LIG1        0.0000
     19 C19         2.9217    2.1939    6.3021 C.2     1  LIG1        0.0000
     20 O20         1.7474    1.8654    6.2878 O.2     1  LIG1        0.0000
     21 C21         4.0342    1.3593    6.6800 C.3     1  LIG1        0.0000
     22 C22         4.0201    0.0371    7.1073 C.3     1  LIG1        0.0000
     23 C23         5.2416   -0.5448    7.4221 C.3     1  LIG1        0.0000
     24 C24         6.4146    0.1932    7.3015 C.3     1  LIG1        0.0000
     25 C25         6.3856    1.5144    6.8704 C.3     1  LIG1        0.0000
     26 C26         5.1726    2.1171    6.5505 C.3     1  LIG1        0.0000
     27 C27         4.8040    3.4408    6.0938 C.2     1  LIG1        0.0000
     28 O28         5.5665    4.3666    5.8733 O.2     1  LIG1        0.0000
     29 C29         3.6667    5.4642    3.3938 C.3     1  LIG1        0.0000
     30 C30         3.7109    5.5523    2.0062 C.3     1  LIG1        0.0000
     31 C31         4.8053    6.3933    1.3691 C.3     1  LIG1        0.0000
     32 C32         2.7717    4.8841    1.2269 C.3     1  LIG1        0.0000
     33 O33         2.8400    4.9892   -0.1180 O.2     1  LIG1        0.0000
     34 C34         2.3214    1.5098    1.0177 C.3     1  LIG1        0.0000
     35 C35         2.1498    0.0157    1.2390 C.3     1  LIG1        0.0000
     36 C36        -1.9579   -1.4833    1.7028 C.3     1  LIG1        0.0000
     37 C37        -3.2414   -1.9953    1.8593 C.3     1  LIG1        0.0000
     38 H          -5.4923   -3.1666    2.2067 H       1  LIG1        0.0000
     39 H          -4.9581   -4.6439    1.7606 H       1  LIG1        0.0000
     40 H          -4.9396   -4.2100    3.3348 H       1  LIG1        0.0000
     41 H          -2.4550   -5.1046    2.7055 H       1  LIG1        0.0000
     42 H          -0.2382   -4.2336    2.4381 H       1  LIG1        0.0000
     43 H           0.2576    0.2545    2.0470 H       1  LIG1        0.0000
     44 H          -0.9068   -0.3898    0.0018 H       1  LIG1        0.0000
     45 H           0.5555   -0.4817   -0.7193 H       1  LIG1        0.0000
     46 H           0.1923    1.6571   -1.1739 H       1  LIG1        0.0000
     47 H          -0.8795    1.8241    0.0467 H       1  LIG1        0.0000
     48 H           1.0155    3.4781    3.6675 H       1  LIG1        0.0000
     49 H           2.9707    5.4324    5.9169 H       1  LIG1        0.0000
     50 H           1.6626    4.4624    5.7967 H       1  LIG1        0.0000
     51 H           3.1647   -0.4751    7.1851 H       1  LIG1        0.0000
     52 H           5.2777   -1.4938    7.7352 H       1  LIG1        0.0000
     53 H           7.2906   -0.2325    7.5281 H       1  LIG1        0.0000
     54 H           7.2373    2.0323    6.7900 H       1  LIG1        0.0000
     55 H           4.3418    5.9451    3.9531 H       1  LIG1        0.0000
     56 H           5.3789    6.7917    2.0849 H       1  LIG1        0.0000
     57 H           5.3660    5.8163    0.7753 H       1  LIG1        0.0000
     58 H           4.3910    7.1252    0.8281 H       1  LIG1        0.0000
     59 H           3.5584    5.5418   -0.5405 H       1  LIG1        0.0000
     60 H           2.6312    1.9344    1.8685 H       1  LIG1        0.0000
     61 H           3.0041    1.6597    0.3026 H       1  LIG1        0.0000
     62 H           2.5471   -0.4802    0.4668 H       1  LIG1        0.0000
     63 H           2.6183   -0.2492    2.0818 H       1  LIG1        0.0000
     64 H          -1.8231   -0.5283    1.4386 H       1  LIG1        0.0000
     65 H          -4.0361   -1.4074    1.7083 H       1  LIG1        0.0000
@<TRIPOS>BOND
     1     1     2    1
     2     2     3   ar
     3     3     4   ar
     4     4     5   ar
     5     5     6    1
     6     6     7    2
     7     6     8    1
     8     8     9    1
     9     9    10    1
    10    10    11    1
    11    11    12   am
    12    12    13    2
    13    12    14    1
    14    14    15   ar
    15    15    16   ar
    16    16    17    1
    17    17    18    1
    18    18    19   am
    19    19    20    2
    20    19    21    1
    21    21    22   ar
    22    22    23   ar
    23    23    24   ar
    24    24    25   ar
    25    25    26   ar
    26    26    21   ar
    27    26    27    1
    28    27    18   am
    29    27    28    2
    30    16    29   ar
    31    29    30   ar
    32    30    31    1
    33    30    32   ar
    34    32    14   ar
    35    32    33    1
    36    11    34    1
    37    34    35    1
    38    35     8    1
    39     5    36   ar
    40    36    37   ar
    41    37     2   ar
    42     1    38    1
    43     1    39    1
    44     1    40    1
    45     3    41    1
    46     4    42    1
    47     8    43    1
    48     9    44    1
    49     9    45    1
    50    10    46    1
    51    10    47    1
    52    15    48    1
    53    17    49    1
    54    17    50    1
    55    22    51    1
    56    23    52    1
    57    24    53    1
    58    25    54    1
    59    29    55    1
    60    31    56    1
    61    31    57    1
    62    31    58    1
    63    33    59    1
    64    34    60    1
    65    34    61    1
    66    35    62    1
    67    35    63    1
    68    36    64    1
    69    37    65    1
