@<TRIPOS>MOLECULE
*****
 65 69 0 0 0
SMALL
USER_CHARGES

@<TRIPOS>ATOM
      1 C1         -1.0982   -6.1039   -2.1506 C.3     1  LIG1        0.0000
      2 C2         -0.3802   -4.9774   -1.4269 C.3     1  LIG1        0.0000
      3 C3          0.9917   -5.0603   -1.2146 C.3     1  LIG1        0.0000
      4 C4          1.6563   -4.0328   -0.5531 C.3     1  LIG1        0.0000
      5 C5          0.9330   -2.9305   -0.1098 C.3     1  LIG1        0.0000
      6 C6          1.6213   -1.8569    0.5798 C.2     1  LIG1        0.0000
      7 O7          2.8051   -1.9239    0.7640 O.2     1  LIG1        0.0000
      8 C8          0.8427   -0.6456    1.0700 C.3     1  LIG1        0.0000
      9 C9          0.1892    0.0259   -0.1280 C.3     1  LIG1        0.0000
     10 C10        -0.0187    1.5131    0.1143 C.3     1  LIG1        0.0000
     11 N11         1.3077    2.1419    0.1927 N.am    1  LIG1        0.0000
     12 C12         1.5355    3.4683   -0.2138 C.2     1  LIG1        0.0000
     13 O13         0.6297    4.1284   -0.6427 O.2     1  LIG1        0.0000
     14 C14         2.8651    4.0390   -0.1147 C.3     1  LIG1        0.0000
     15 C15         3.2462    4.6960    1.0510 C.3     1  LIG1        0.0000
     16 C16         4.5231    5.2409    1.1383 C.3     1  LIG1        0.0000
     17 C17         4.9393    5.9582    2.4123 C.3     1  LIG1        0.0000
     18 N18         4.5988    7.3853    2.3052 N.am    1  LIG1        0.0000
     19 C19         5.4902    8.4059    1.9821 C.2     1  LIG1        0.0000
     20 O20         6.6770    8.2647    1.7400 O.2     1  LIG1        0.0000
     21 C21         4.7644    9.6510    1.9842 C.3     1  LIG1        0.0000
     22 C22         5.2391   10.9315    1.7272 C.3     1  LIG1        0.0000
     23 C23         4.3271   11.9768    1.8013 C.3     1  LIG1        0.0000
     24 C24         2.9981   11.7183    2.1204 C.3     1  LIG1        0.0000
     25 C25         2.5632   10.4221    2.3710 C.3     1  LIG1        0.0000
     26 C26         3.4602    9.3601    2.3029 C.3     1  LIG1        0.0000
     27 C27         3.3368    7.9326    2.5111 C.2     1  LIG1        0.0000
     28 O28         2.3176    7.3317    2.8068 O.2     1  LIG1        0.0000
     29 C29         5.4187    5.1374    0.0789 C.3     1  LIG1        0.0000
     30 C30         5.0252    4.4780   -1.0809 C.3     1  LIG1        0.0000
     31 C31         6.0181    4.3753   -2.2274 C.3     1  LIG1        0.0000
     32 C32         3.7508    3.9285   -1.1818 C.3     1  LIG1        0.0000
     33 O33         3.3973    3.2947   -2.3209 O.2     1  LIG1        0.0000
     34 C34         2.3894    1.3019    0.7277 C.3     1  LIG1        0.0000
     35 C35         1.7462    0.3717    1.7467 C.3     1  LIG1        0.0000
     36 C36        -0.4398   -2.8397   -0.3169 C.3     1  LIG1        0.0000
     37 C37        -1.0962   -3.8715   -0.9791 C.3     1  LIG1        0.0000
     38 H          -2.0723   -5.8885   -2.2193 H       1  LIG1        0.0000
     39 H          -0.7144   -6.2086   -3.0681 H       1  LIG1        0.0000
     40 H          -0.9804   -6.9561   -1.6407 H       1  LIG1        0.0000
     41 H           1.5003   -5.8584   -1.5376 H       1  LIG1        0.0000
     42 H           2.6428   -4.0861   -0.3981 H       1  LIG1        0.0000
     43 H           0.1356   -0.9420    1.7121 H       1  LIG1        0.0000
     44 H          -0.6979   -0.4032   -0.2977 H       1  LIG1        0.0000
     45 H           0.7762   -0.0943   -0.9286 H       1  LIG1        0.0000
     46 H          -0.5406    1.9115   -0.6399 H       1  LIG1        0.0000
     47 H          -0.5132    1.6527    0.9722 H       1  LIG1        0.0000
     48 H           2.6091    4.7756    1.8177 H       1  LIG1        0.0000
     49 H           4.4581    5.5583    3.1924 H       1  LIG1        0.0000
     50 H           5.9258    5.8598    2.5431 H       1  LIG1        0.0000
     51 H           6.1988   11.0940    1.4980 H       1  LIG1        0.0000
     52 H           4.6260   12.9147    1.6252 H       1  LIG1        0.0000
     53 H           2.3467   12.4754    2.1703 H       1  LIG1        0.0000
     54 H           1.6048   10.2524    2.6004 H       1  LIG1        0.0000
     55 H           6.3346    5.5324    0.1504 H       1  LIG1        0.0000
     56 H           6.8727    4.8262   -1.9696 H       1  LIG1        0.0000
     57 H           6.1968    3.4122   -2.4284 H       1  LIG1        0.0000
     58 H           5.6381    4.8201   -3.0384 H       1  LIG1        0.0000
     59 H           4.0478    3.2255   -3.0772 H       1  LIG1        0.0000
     60 H           3.0835    1.8710    1.1685 H       1  LIG1        0.0000
     61 H           2.8111    0.7712   -0.0074 H       1  LIG1        0.0000
     62 H           2.4651   -0.1118    2.2461 H       1  LIG1        0.0000
     63 H           1.2032    0.9151    2.3870 H       1  LIG1        0.0000
     64 H          -0.9485   -2.0419    0.0067 H       1  LIG1        0.0000
     65 H          -2.0828   -3.8186   -1.1335 H       1  LIG1        0.0000
@<TRIPOS>BOND
     1     1     2    1
     2     2     3   ar
     3     3     4   ar
     4     4     5   ar
     5     5     6    1
     6     6     7    2
     7     6     8    1
     8     8     9    1
     9     9    10    1
    10    10    11    1
    11    11    12   am
    12    12    13    2
    13    12    14    1
    14    14    15   ar
    15    15    16   ar
    16    16    17    1
    17    17    18    1
    18    18    19   am
    19    19    20    2
    20    19    21    1
    21    21    22   ar
    22    22    23   ar
    23    23    24   ar
    24    24    25   ar
    25    25    26   ar
    26    26    21   ar
    27    26    27    1
    28    27    18   am
    29    27    28    2
    30    16    29   ar
    31    29    30   ar
    32    30    31    1
    33    30    32   ar
    34    32    14   ar
    35    32    33    1
    36    11    34    1
    37    34    35    1
    38    35     8    1
    39     5    36   ar
    40    36    37   ar
    41    37     2   ar
    42     1    38    1
    43     1    39    1
    44     1    40    1
    45     3    41    1
    46     4    42    1
    47     8    43    1
    48     9    44    1
    49     9    45    1
    50    10    46    1
    51    10    47    1
    52    15    48    1
    53    17    49    1
    54    17    50    1
    55    22    51    1
    56    23    52    1
    57    24    53    1
    58    25    54    1
    59    29    55    1
    60    31    56    1
    61    31    57    1
    62    31    58    1
    63    33    59    1
    64    34    60    1
    65    34    61    1
    66    35    62    1
    67    35    63    1
    68    36    64    1
    69    37    65    1
