@<TRIPOS>MOLECULE
*****
 65 69 0 0 0
SMALL
USER_CHARGES

@<TRIPOS>ATOM
      1 C1          3.7084   -6.1287    3.0954 C.3     1  LIG1        0.0000
      2 C2          3.4961   -4.6339    2.9252 C.3     1  LIG1        0.0000
      3 C3          4.0203   -3.7532    3.8652 C.3     1  LIG1        0.0000
      4 C4          3.8304   -2.3833    3.7163 C.3     1  LIG1        0.0000
      5 C5          3.1129   -1.9117    2.6219 C.3     1  LIG1        0.0000
      6 C6          2.9126   -0.4848    2.4622 C.2     1  LIG1        0.0000
      7 O7          3.3642    0.2787    3.2703 O.2     1  LIG1        0.0000
      8 C8          2.1302    0.0444    1.2705 C.3     1  LIG1        0.0000
      9 C9          2.0890    1.5622    1.3753 C.3     1  LIG1        0.0000
     10 C10         1.2603    2.2009    0.2690 C.3     1  LIG1        0.0000
     11 N11        -0.0269    1.5131    0.0802 N.am    1  LIG1        0.0000
     12 C12        -1.1286    2.2716   -0.3251 C.2     1  LIG1        0.0000
     13 O13        -1.0097    3.4514   -0.5095 O.2     1  LIG1        0.0000
     14 C14        -2.4156    1.6328   -0.5228 C.3     1  LIG1        0.0000
     15 C15        -2.7444    1.1215   -1.7742 C.3     1  LIG1        0.0000
     16 C16        -3.9808    0.5105   -1.9559 C.3     1  LIG1        0.0000
     17 C17        -4.3396   -0.0485   -3.3233 C.3     1  LIG1        0.0000
     18 N18        -3.9036   -1.4509   -3.4095 N.am    1  LIG1        0.0000
     19 C19        -4.7256   -2.5634   -3.2448 C.2     1  LIG1        0.0000
     20 O20        -5.9217   -2.5364   -3.0084 O.2     1  LIG1        0.0000
     21 C21        -3.9161   -3.7451   -3.4032 C.3     1  LIG1        0.0000
     22 C22        -4.3011   -5.0775   -3.3172 C.3     1  LIG1        0.0000
     23 C23        -3.3165   -6.0395   -3.5045 C.3     1  LIG1        0.0000
     24 C24        -2.0070   -5.6515   -3.7683 C.3     1  LIG1        0.0000
     25 C25        -1.6627   -4.3070   -3.8461 C.3     1  LIG1        0.0000
     26 C26        -2.6332   -3.3268   -3.6609 C.3     1  LIG1        0.0000
     27 C27        -2.6056   -1.8791   -3.6670 C.2     1  LIG1        0.0000
     28 O28        -1.6284   -1.1767   -3.8643 O.2     1  LIG1        0.0000
     29 C29        -4.8879    0.4056   -0.9064 C.3     1  LIG1        0.0000
     30 C30        -4.5467    0.9210    0.3398 C.3     1  LIG1        0.0000
     31 C31        -5.5512    0.7966    1.4740 C.3     1  LIG1        0.0000
     32 C32        -3.3135    1.5349    0.5355 C.3     1  LIG1        0.0000
     33 O33        -3.0108    2.0263    1.7566 O.2     1  LIG1        0.0000
     34 C34        -0.2102    0.0692    0.3027 C.3     1  LIG1        0.0000
     35 C35         0.6992   -0.4591    1.4029 C.3     1  LIG1        0.0000
     36 C36         2.5841   -2.7857    1.6773 C.3     1  LIG1        0.0000
     37 C37         2.7786   -4.1537    1.8340 C.3     1  LIG1        0.0000
     38 H           3.2711   -6.6156    2.3393 H       1  LIG1        0.0000
     39 H           4.6884   -6.3280    3.0978 H       1  LIG1        0.0000
     40 H           3.3056   -6.4262    3.9609 H       1  LIG1        0.0000
     41 H           4.5337   -4.1047    4.6481 H       1  LIG1        0.0000
     42 H           4.2055   -1.7447    4.3884 H       1  LIG1        0.0000
     43 H           2.5404   -0.2492    0.4071 H       1  LIG1        0.0000
     44 H           3.0237    1.9130    1.3191 H       1  LIG1        0.0000
     45 H           1.6918    1.8120    2.2584 H       1  LIG1        0.0000
     46 H           1.0845    3.1560    0.5073 H       1  LIG1        0.0000
     47 H           1.7770    2.1603   -0.5862 H       1  LIG1        0.0000
     48 H          -2.0990    1.1925   -2.5347 H       1  LIG1        0.0000
     49 H          -5.3297    0.0014   -3.4545 H       1  LIG1        0.0000
     50 H          -3.8819    0.4871   -4.0329 H       1  LIG1        0.0000
     51 H          -5.2490   -5.3337   -3.1280 H       1  LIG1        0.0000
     52 H          -3.5491   -7.0106   -3.4498 H       1  LIG1        0.0000
     53 H          -1.3037   -6.3493   -3.9038 H       1  LIG1        0.0000
     54 H          -0.7167   -4.0438   -4.0352 H       1  LIG1        0.0000
     55 H          -5.7746   -0.0350   -1.0462 H       1  LIG1        0.0000
     56 H          -6.3714    0.3300    1.1431 H       1  LIG1        0.0000
     57 H          -5.1465    0.2697    2.2214 H       1  LIG1        0.0000
     58 H          -5.7964    1.7083    1.8035 H       1  LIG1        0.0000
     59 H          -3.6693    1.9464    2.5050 H       1  LIG1        0.0000
     60 H          -0.0049   -0.4169   -0.5468 H       1  LIG1        0.0000
     61 H          -1.1613   -0.0992    0.5616 H       1  LIG1        0.0000
     62 H           0.3365   -0.1649    2.2872 H       1  LIG1        0.0000
     63 H           0.7058   -1.4582    1.3610 H       1  LIG1        0.0000
     64 H           2.0701   -2.4342    0.8948 H       1  LIG1        0.0000
     65 H           2.4029   -4.7923    1.1624 H       1  LIG1        0.0000
@<TRIPOS>BOND
     1     1     2    1
     2     2     3   ar
     3     3     4   ar
     4     4     5   ar
     5     5     6    1
     6     6     7    2
     7     6     8    1
     8     8     9    1
     9     9    10    1
    10    10    11    1
    11    11    12   am
    12    12    13    2
    13    12    14    1
    14    14    15   ar
    15    15    16   ar
    16    16    17    1
    17    17    18    1
    18    18    19   am
    19    19    20    2
    20    19    21    1
    21    21    22   ar
    22    22    23   ar
    23    23    24   ar
    24    24    25   ar
    25    25    26   ar
    26    26    21   ar
    27    26    27    1
    28    27    18   am
    29    27    28    2
    30    16    29   ar
    31    29    30   ar
    32    30    31    1
    33    30    32   ar
    34    32    14   ar
    35    32    33    1
    36    11    34    1
    37    34    35    1
    38    35     8    1
    39     5    36   ar
    40    36    37   ar
    41    37     2   ar
    42     1    38    1
    43     1    39    1
    44     1    40    1
    45     3    41    1
    46     4    42    1
    47     8    43    1
    48     9    44    1
    49     9    45    1
    50    10    46    1
    51    10    47    1
    52    15    48    1
    53    17    49    1
    54    17    50    1
    55    22    51    1
    56    23    52    1
    57    24    53    1
    58    25    54    1
    59    29    55    1
    60    31    56    1
    61    31    57    1
    62    31    58    1
    63    33    59    1
    64    34    60    1
    65    34    61    1
    66    35    62    1
    67    35    63    1
    68    36    64    1
    69    37    65    1
