@<TRIPOS>MOLECULE
*****
 65 69 0 0 0
SMALL
USER_CHARGES

@<TRIPOS>ATOM
      1 C1          2.6101   -3.7090    6.7190 C.3     1  LIG1        0.0000
      2 C2          2.0458   -3.1968    5.4046 C.3     1  LIG1        0.0000
      3 C3          1.3469   -4.0638    4.5715 C.3     1  LIG1        0.0000
      4 C4          0.8270   -3.6024    3.3667 C.3     1  LIG1        0.0000
      5 C5          1.0163   -2.2712    3.0104 C.3     1  LIG1        0.0000
      6 C6          0.4760   -1.7854    1.7558 C.2     1  LIG1        0.0000
      7 O7         -0.1287   -2.5299    1.0346 O.2     1  LIG1        0.0000
      8 C8          0.6755   -0.3329    1.3539 C.3     1  LIG1        0.0000
      9 C9          0.0304   -0.0410    0.0087 C.3     1  LIG1        0.0000
     10 C10         0.0180    1.4644   -0.2082 C.3     1  LIG1        0.0000
     11 N11         1.0492    2.1230    0.6072 N.am    1  LIG1        0.0000
     12 C12         0.8007    3.4233    1.0333 C.2     1  LIG1        0.0000
     13 O13        -0.2261    3.9670    0.7333 O.2     1  LIG1        0.0000
     14 C14         1.7825    4.1221    1.8402 C.3     1  LIG1        0.0000
     15 C15         2.7688    4.8811    1.2184 C.3     1  LIG1        0.0000
     16 C16         3.7071    5.5482    1.9992 C.3     1  LIG1        0.0000
     17 C17         4.7844    6.3780    1.3196 C.3     1  LIG1        0.0000
     18 N18         5.9598    5.5338    1.0554 N.am    1  LIG1        0.0000
     19 C19         7.1178    5.4974    1.8289 C.2     1  LIG1        0.0000
     20 O20         7.3235    6.1557    2.8346 O.2     1  LIG1        0.0000
     21 C21         8.0240    4.5483    1.2330 C.3     1  LIG1        0.0000
     22 C22         9.2988    4.1865    1.6515 C.3     1  LIG1        0.0000
     23 C23         9.9765    3.2428    0.8898 C.3     1  LIG1        0.0000
     24 C24         9.3742    2.6992   -0.2401 C.3     1  LIG1        0.0000
     25 C25         8.0965    3.0884   -0.6252 C.3     1  LIG1        0.0000
     26 C26         7.4000    4.0329    0.1231 C.3     1  LIG1        0.0000
     27 C27         6.0945    4.6455   -0.0064 C.2     1  LIG1        0.0000
     28 O28         5.2741    4.4186   -0.8797 O.2     1  LIG1        0.0000
     29 C29         3.6711    5.4653    3.3874 C.3     1  LIG1        0.0000
     30 C30         2.6797    4.7030    3.9965 C.3     1  LIG1        0.0000
     31 C31         2.6570    4.6249    5.5145 C.3     1  LIG1        0.0000
     32 C32         1.7351    4.0303    3.2276 C.3     1  LIG1        0.0000
     33 O33         0.7849    3.2975    3.8475 O.2     1  LIG1        0.0000
     34 C34         2.3214    1.5098    1.0177 C.3     1  LIG1        0.0000
     35 C35         2.1498    0.0157    1.2390 C.3     1  LIG1        0.0000
     36 C36         1.7150   -1.3971    3.8372 C.3     1  LIG1        0.0000
     37 C37         2.2315   -1.8669    5.0399 C.3     1  LIG1        0.0000
     38 H           3.0797   -2.9642    7.1929 H       1  LIG1        0.0000
     39 H           1.8645   -4.0506    7.2912 H       1  LIG1        0.0000
     40 H           3.2574   -4.4494    6.5378 H       1  LIG1        0.0000
     41 H           1.2182   -5.0188    4.8386 H       1  LIG1        0.0000
     42 H           0.3229   -4.2206    2.7636 H       1  LIG1        0.0000
     43 H           0.2576    0.2545    2.0470 H       1  LIG1        0.0000
     44 H          -0.9068   -0.3898    0.0018 H       1  LIG1        0.0000
     45 H           0.5555   -0.4817   -0.7193 H       1  LIG1        0.0000
     46 H           0.1923    1.6571   -1.1739 H       1  LIG1        0.0000
     47 H          -0.8795    1.8241    0.0467 H       1  LIG1        0.0000
     48 H           2.8029    4.9464    0.2212 H       1  LIG1        0.0000
     49 H           4.4321    6.7387    0.4560 H       1  LIG1        0.0000
     50 H           5.0463    7.1369    1.9158 H       1  LIG1        0.0000
     51 H           9.7118    4.5893    2.4683 H       1  LIG1        0.0000
     52 H          10.8969    2.9544    1.1538 H       1  LIG1        0.0000
     53 H           9.8671    2.0190   -0.7827 H       1  LIG1        0.0000
     54 H           7.6774    2.6894   -1.4407 H       1  LIG1        0.0000
     55 H           4.3498    5.9480    3.9409 H       1  LIG1        0.0000
     56 H           3.4082    5.1694    5.8876 H       1  LIG1        0.0000
     57 H           1.7864    4.9813    5.8537 H       1  LIG1        0.0000
     58 H           2.7615    3.6724    5.8008 H       1  LIG1        0.0000
     59 H           0.7671    3.2437    4.8459 H       1  LIG1        0.0000
     60 H           2.6312    1.9344    1.8685 H       1  LIG1        0.0000
     61 H           3.0041    1.6597    0.3026 H       1  LIG1        0.0000
     62 H           2.5471   -0.4802    0.4668 H       1  LIG1        0.0000
     63 H           2.6183   -0.2492    2.0818 H       1  LIG1        0.0000
     64 H           1.8443   -0.4423    3.5697 H       1  LIG1        0.0000
     65 H           2.7363   -1.2489    5.6426 H       1  LIG1        0.0000
@<TRIPOS>BOND
     1     1     2    1
     2     2     3   ar
     3     3     4   ar
     4     4     5   ar
     5     5     6    1
     6     6     7    2
     7     6     8    1
     8     8     9    1
     9     9    10    1
    10    10    11    1
    11    11    12   am
    12    12    13    2
    13    12    14    1
    14    14    15   ar
    15    15    16   ar
    16    16    17    1
    17    17    18    1
    18    18    19   am
    19    19    20    2
    20    19    21    1
    21    21    22   ar
    22    22    23   ar
    23    23    24   ar
    24    24    25   ar
    25    25    26   ar
    26    26    21   ar
    27    26    27    1
    28    27    18   am
    29    27    28    2
    30    16    29   ar
    31    29    30   ar
    32    30    31    1
    33    30    32   ar
    34    32    14   ar
    35    32    33    1
    36    11    34    1
    37    34    35    1
    38    35     8    1
    39     5    36   ar
    40    36    37   ar
    41    37     2   ar
    42     1    38    1
    43     1    39    1
    44     1    40    1
    45     3    41    1
    46     4    42    1
    47     8    43    1
    48     9    44    1
    49     9    45    1
    50    10    46    1
    51    10    47    1
    52    15    48    1
    53    17    49    1
    54    17    50    1
    55    22    51    1
    56    23    52    1
    57    24    53    1
    58    25    54    1
    59    29    55    1
    60    31    56    1
    61    31    57    1
    62    31    58    1
    63    33    59    1
    64    34    60    1
    65    34    61    1
    66    35    62    1
    67    35    63    1
    68    36    64    1
    69    37    65    1
