@<TRIPOS>MOLECULE
*****
 65 69 0 0 0
SMALL
USER_CHARGES

@<TRIPOS>ATOM
      1 C1          2.5980   -3.6874    6.7325 C.3     1  LIG1        0.0000
      2 C2          2.0372   -3.1802    5.4147 C.3     1  LIG1        0.0000
      3 C3          1.3348   -4.0487    4.5861 C.3     1  LIG1        0.0000
      4 C4          0.8180   -3.5920    3.3782 C.3     1  LIG1        0.0000
      5 C5          1.0140   -2.2638    3.0142 C.3     1  LIG1        0.0000
      6 C6          0.4770   -1.7828    1.7563 C.2     1  LIG1        0.0000
      7 O7         -0.1306   -2.5286    1.0390 O.2     1  LIG1        0.0000
      8 C8          0.6838   -0.3339    1.3461 C.3     1  LIG1        0.0000
      9 C9          2.1633   -0.0007    1.2331 C.3     1  LIG1        0.0000
     10 C10         2.3415    1.4944    1.0140 C.3     1  LIG1        0.0000
     11 N11         1.0781    2.1230    0.6036 N.am    1  LIG1        0.0000
     12 C12         0.8488    3.4259    1.0392 C.2     1  LIG1        0.0000
     13 O13        -0.1656    3.9904    0.7353 O.2     1  LIG1        0.0000
     14 C14         1.8360    4.1005    1.8601 C.3     1  LIG1        0.0000
     15 C15         2.8409    4.8469    1.2529 C.3     1  LIG1        0.0000
     16 C16         3.7843    5.4907    2.0470 C.3     1  LIG1        0.0000
     17 C17         4.8818    6.3067    1.3833 C.3     1  LIG1        0.0000
     18 N18         4.4274    7.6959    1.2166 N.am    1  LIG1        0.0000
     19 C19         3.9337    8.2477    0.0366 C.2     1  LIG1        0.0000
     20 O20         3.8049    7.6610   -1.0246 O.2     1  LIG1        0.0000
     21 C21         3.6034    9.6271    0.2918 C.3     1  LIG1        0.0000
     22 C22         3.0880   10.5719   -0.5871 C.3     1  LIG1        0.0000
     23 C23         2.8621   11.8494   -0.0901 C.3     1  LIG1        0.0000
     24 C24         3.1491   12.1385    1.2399 C.3     1  LIG1        0.0000
     25 C25         3.6643   11.1643    2.0871 C.3     1  LIG1        0.0000
     26 C26         3.8989    9.8782    1.6097 C.3     1  LIG1        0.0000
     27 C27         4.4227    8.6692    2.2102 C.2     1  LIG1        0.0000
     28 O28         4.7851    8.5363    3.3670 O.2     1  LIG1        0.0000
     29 C29         3.7351    5.3971    3.4341 C.3     1  LIG1        0.0000
     30 C30         2.7252    4.6476    4.0285 C.3     1  LIG1        0.0000
     31 C31         2.6883    4.5573    5.5456 C.3     1  LIG1        0.0000
     32 C32         1.7753    3.9982    3.2462 C.3     1  LIG1        0.0000
     33 O33         0.8070    3.2773    3.8521 O.2     1  LIG1        0.0000
     34 C34         0.0434    1.4698   -0.2135 C.3     1  LIG1        0.0000
     35 C35         0.0478   -0.0352   -0.0023 C.3     1  LIG1        0.0000
     36 C36         1.7163   -1.3883    3.8364 C.3     1  LIG1        0.0000
     37 C37         2.2296   -1.8534    5.0423 C.3     1  LIG1        0.0000
     38 H           3.0708   -2.9420    7.2024 H       1  LIG1        0.0000
     39 H           1.8504   -4.0220    7.3061 H       1  LIG1        0.0000
     40 H           3.2419   -4.4320    6.5562 H       1  LIG1        0.0000
     41 H           1.2013   -5.0016    4.8588 H       1  LIG1        0.0000
     42 H           0.3114   -4.2113    2.7784 H       1  LIG1        0.0000
     43 H           0.2707    0.2596    2.0369 H       1  LIG1        0.0000
     44 H           2.5573   -0.4984    0.4604 H       1  LIG1        0.0000
     45 H           2.6294   -0.2703    2.0758 H       1  LIG1        0.0000
     46 H           2.6536    1.9145    1.8661 H       1  LIG1        0.0000
     47 H           3.0261    1.6406    0.3000 H       1  LIG1        0.0000
     48 H           2.8845    4.9198    0.2565 H       1  LIG1        0.0000
     49 H           5.7016    6.2905    1.9556 H       1  LIG1        0.0000
     50 H           5.0928    5.9153    0.4876 H       1  LIG1        0.0000
     51 H           2.8876   10.3415   -1.5393 H       1  LIG1        0.0000
     52 H           2.4934   12.5609   -0.6883 H       1  LIG1        0.0000
     53 H           2.9824   13.0597    1.5914 H       1  LIG1        0.0000
     54 H           3.8667   11.3878    3.0406 H       1  LIG1        0.0000
     55 H           4.4176    5.8630    3.9971 H       1  LIG1        0.0000
     56 H           3.4459    5.0853    5.9294 H       1  LIG1        0.0000
     57 H           1.8214    4.9265    5.8805 H       1  LIG1        0.0000
     58 H           2.7735    3.6009    5.8248 H       1  LIG1        0.0000
     59 H           0.7799    3.2156    4.8498 H       1  LIG1        0.0000
     60 H           0.2184    1.6645   -1.1786 H       1  LIG1        0.0000
     61 H          -0.8524    1.8328    0.0428 H       1  LIG1        0.0000
     62 H          -0.8908   -0.3801   -0.0159 H       1  LIG1        0.0000
     63 H           0.5754   -0.4759   -0.7286 H       1  LIG1        0.0000
     64 H           1.8504   -0.4356    3.5634 H       1  LIG1        0.0000
     65 H           2.7369   -1.2343    5.6417 H       1  LIG1        0.0000
@<TRIPOS>BOND
     1     1     2    1
     2     2     3   ar
     3     3     4   ar
     4     4     5   ar
     5     5     6    1
     6     6     7    2
     7     6     8    1
     8     8     9    1
     9     9    10    1
    10    10    11    1
    11    11    12   am
    12    12    13    2
    13    12    14    1
    14    14    15   ar
    15    15    16   ar
    16    16    17    1
    17    17    18    1
    18    18    19   am
    19    19    20    2
    20    19    21    1
    21    21    22   ar
    22    22    23   ar
    23    23    24   ar
    24    24    25   ar
    25    25    26   ar
    26    26    21   ar
    27    26    27    1
    28    27    18   am
    29    27    28    2
    30    16    29   ar
    31    29    30   ar
    32    30    31    1
    33    30    32   ar
    34    32    14   ar
    35    32    33    1
    36    11    34    1
    37    34    35    1
    38    35     8    1
    39     5    36   ar
    40    36    37   ar
    41    37     2   ar
    42     1    38    1
    43     1    39    1
    44     1    40    1
    45     3    41    1
    46     4    42    1
    47     8    43    1
    48     9    44    1
    49     9    45    1
    50    10    46    1
    51    10    47    1
    52    15    48    1
    53    17    49    1
    54    17    50    1
    55    22    51    1
    56    23    52    1
    57    24    53    1
    58    25    54    1
    59    29    55    1
    60    31    56    1
    61    31    57    1
    62    31    58    1
    63    33    59    1
    64    34    60    1
    65    34    61    1
    66    35    62    1
    67    35    63    1
    68    36    64    1
    69    37    65    1
