@<TRIPOS>MOLECULE

  70   73
SMALL
USER_CHARGES
@<TRIPOS>ATOM
   1 C1          -3.6550     3.3613     5.3393 C.3          1    LIG   0.0000
   2 C2          -2.9948     3.4961     3.9768 C.3          1    LIG   0.0000
   3 C3          -3.6865     2.5749     2.9852 C.3          1    LIG   0.0000
   4 N4          -3.0480     2.7052     1.6676 N.am         1    LIG   0.0000
   5 C5          -1.8745     2.0481     1.4071 C.2          1    LIG   0.0000
   6 O6          -1.3678     1.3661     2.2545 O.2          1    LIG   0.0000
   7 C7          -1.2143     2.1828     0.0446 C.3          1    LIG   0.0000
   8 N8           0.0213     1.3881     0.0183 N.pl3        1    LIG   0.0000
   9 C9           0.1399     0.0036     0.0195 C.2          1    LIG   0.0000
  10 N10         -0.9391    -0.8862     0.0421 N.pl3        1    LIG   0.0000
  11 C11         -0.6574    -2.3313     0.0354 C.3          1    LIG   0.0000
  12 C12         -1.7355    -3.1145    -0.6996 C.3          1    LIG   0.0000
  13 C13         -3.1396    -2.6965    -0.2847 C.3          1    LIG   0.0000
  14 C14         -3.2916    -1.2324    -0.6718 C.3          1    LIG   0.0000
  15 C15         -4.6984    -0.7412    -0.3714 C.3          1    LIG   0.0000
  16 N16         -5.6734    -1.5868    -1.0752 N.am         1    LIG   0.0000
  17 C17         -6.0247    -2.8049    -0.5559 C.2          1    LIG   0.0000
  18 O18         -5.5365    -3.1816     0.4736 O.2          1    LIG   0.0000
  19 C19         -7.0328    -3.6793    -1.2836 C.3          1    LIG   0.0000
  20 C20         -7.2444    -4.9661    -0.5027 C.3          1    LIG   0.0000
  21 C21         -8.3536    -2.9368    -1.4042 C.3          1    LIG   0.0000
  22 C22         -2.3059    -0.3400     0.0687 C.3          1    LIG   0.0000
  23 N23          1.3510    -0.3507    -0.0042 N.2          1    LIG   0.0000
  24 N24          2.1402     0.7395    -0.0216 N.pl3        1    LIG   0.0000
  25 C25          1.3315     1.8610    -0.0129 C.2          1    LIG   0.0000
  26 C26          1.7165     3.1273    -0.0303 C.2          1    LIG   0.0000
  27 N27          0.7264     4.1198    -0.0169 N.2          1    LIG   0.0000
  28 N28          0.9827     5.3171    -0.0355 N.2          1    LIG   0.0000
  29 C29          2.2952     5.8156    -0.0719 C.2          1    LIG   0.0000
  30 O30          2.4495     7.0282    -0.0858 O.2          1    LIG   0.0000
  31 C31          3.4064     4.8837    -0.0923 C.ar         1    LIG   0.0000
  32 C32          4.7311     5.3063    -0.1307 C.ar         1    LIG   0.0000
  33 C33          5.7819     4.3958    -0.1458 C.ar         1    LIG   0.0000
  34 C34          5.5003     3.0339    -0.1209 C.ar         1    LIG   0.0000
  35 C35          4.1724     2.6212    -0.0806 C.ar         1    LIG   0.0000
  36 C36          3.1139     3.5267    -0.0643 C.ar         1    LIG   0.0000
  37 H           -3.1261    -1.1437    -1.6540 H            1    LIG   0.0000
  38 H           -3.1999     3.9674     5.9916 H            1    LIG   0.0000
  39 H           -4.6203     3.6127     5.2682 H            1    LIG   0.0000
  40 H           -3.5792     2.4153     5.6543 H            1    LIG   0.0000
  41 H           -3.0706     4.4421     3.6617 H            1    LIG   0.0000
  42 H           -2.0295     3.2447     4.0478 H            1    LIG   0.0000
  43 H           -3.6107     1.6288     3.3003 H            1    LIG   0.0000
  44 H           -4.6518     2.8262     2.9142 H            1    LIG   0.0000
  45 H           -3.4703     3.2735     0.9613 H            1    LIG   0.0000
  46 H           -1.8388     1.8515    -0.6627 H            1    LIG   0.0000
  47 H           -0.9963     3.1436    -0.1267 H            1    LIG   0.0000
  48 H           -0.6089    -2.6559     0.9800 H            1    LIG   0.0000
  49 H            0.2209    -2.4877    -0.4163 H            1    LIG   0.0000
  50 H           -1.6180    -4.0875    -0.5006 H            1    LIG   0.0000
  51 H           -1.6314    -2.9602    -1.6821 H            1    LIG   0.0000
  52 H           -3.8200    -3.2519    -0.7626 H            1    LIG   0.0000
  53 H           -3.2541    -2.8056     0.7027 H            1    LIG   0.0000
  54 H           -4.8651    -0.7893     0.6134 H            1    LIG   0.0000
  55 H           -4.7940     0.2052    -0.6799 H            1    LIG   0.0000
  56 H           -6.0802    -1.2729    -1.9331 H            1    LIG   0.0000
  57 H           -6.6879    -3.8964    -2.1968 H            1    LIG   0.0000
  58 H           -7.9076    -5.5413    -0.9815 H            1    LIG   0.0000
  59 H           -6.3754    -5.4545    -0.4234 H            1    LIG   0.0000
  60 H           -7.5893    -4.7490     0.4104 H            1    LIG   0.0000
  61 H           -9.0169    -3.5120    -1.8830 H            1    LIG   0.0000
  62 H           -8.6985    -2.7197    -0.4910 H            1    LIG   0.0000
  63 H           -8.2144    -2.0902    -1.9179 H            1    LIG   0.0000
  64 H           -2.3013     0.5626    -0.3620 H            1    LIG   0.0000
  65 H           -2.6006    -0.2537     1.0204 H            1    LIG   0.0000
  66 H            3.1401     0.7386    -0.0381 H            1    LIG   0.0000
  67 H            4.9320     6.2857    -0.1478 H            1    LIG   0.0000
  68 H            6.7287     4.7162    -0.1742 H            1    LIG   0.0000
  69 H            6.2407     2.3619    -0.1318 H            1    LIG   0.0000
  70 H            3.9709     1.6419    -0.0626 H            1    LIG   0.0000
@<TRIPOS>BOND
   1        1        2 1
   2        2        3 1
   3        3        4 1
   4        4        5 am
   5        5        6 2
   6        5        7 1
   7        7        8 1
   8        8        9 1
   9        9       10 1
  10       10       11 1
  11       11       12 1
  12       12       13 1
  13       13       14 1
  14       14       15 1
  15       15       16 1
  16       16       17 am
  17       17       18 2
  18       17       19 1
  19       19       20 1
  20       19       21 1
  21       14       22 1
  22       22       10 1
  23        9       23 2
  24       23       24 1
  25       24       25 1
  26       25        8 1
  27       25       26 2
  28       26       27 1
  29       27       28 2
  30       28       29 1
  31       29       30 2
  32       29       31 1
  33       31       32 ar
  34       32       33 ar
  35       33       34 ar
  36       34       35 ar
  37       35       36 ar
  38       36       31 ar
  39       36       26 1
  40       14       37 1
  41        1       38 1
  42        1       39 1
  43        1       40 1
  44        2       41 1
  45        2       42 1
  46        3       43 1
  47        3       44 1
  48        4       45 1
  49        7       46 1
  50        7       47 1
  51       11       48 1
  52       11       49 1
  53       12       50 1
  54       12       51 1
  55       13       52 1
  56       13       53 1
  57       15       54 1
  58       15       55 1
  59       16       56 1
  60       19       57 1
  61       20       58 1
  62       20       59 1
  63       20       60 1
  64       21       61 1
  65       21       62 1
  66       21       63 1
  67       22       64 1
  68       22       65 1
  69       24       66 1
  70       32       67 1
  71       33       68 1
  72       34       69 1
  73       35       70 1

@<TRIPOS>MOLECULE

  70   73
SMALL
USER_CHARGES
@<TRIPOS>ATOM
   1 C1          -3.7267    -0.0066     4.9715 C.3          1    LIG   0.0000
   2 C2          -3.0664     0.1281     3.6090 C.3          1    LIG   0.0000
   3 C3          -1.9345     1.1392     3.6922 C.3          1    LIG   0.0000
   4 N4          -1.2960     1.2695     2.3746 N.am         1    LIG   0.0000
   5 C5          -1.8745     2.0481     1.4071 C.2          1    LIG   0.0000
   6 O6          -2.9024     2.6236     1.6352 O.2          1    LIG   0.0000
   7 C7          -1.2143     2.1828     0.0446 C.3          1    LIG   0.0000
   8 N8           0.0213     1.3881     0.0183 N.pl3        1    LIG   0.0000
   9 C9           0.1399     0.0036     0.0195 C.2          1    LIG   0.0000
  10 N10         -0.9391    -0.8862     0.0421 N.pl3        1    LIG   0.0000
  11 C11         -0.6574    -2.3313     0.0354 C.3          1    LIG   0.0000
  12 C12         -1.7355    -3.1145    -0.6996 C.3          1    LIG   0.0000
  13 C13         -3.1396    -2.6965    -0.2847 C.3          1    LIG   0.0000
  14 C14         -3.2916    -1.2324    -0.6718 C.3          1    LIG   0.0000
  15 C15         -4.6984    -0.7412    -0.3714 C.3          1    LIG   0.0000
  16 N16         -5.6734    -1.5868    -1.0752 N.am         1    LIG   0.0000
  17 C17         -6.0247    -2.8049    -0.5559 C.2          1    LIG   0.0000
  18 O18         -5.5365    -3.1816     0.4736 O.2          1    LIG   0.0000
  19 C19         -7.0328    -3.6793    -1.2836 C.3          1    LIG   0.0000
  20 C20         -7.2444    -4.9661    -0.5027 C.3          1    LIG   0.0000
  21 C21         -8.3536    -2.9368    -1.4042 C.3          1    LIG   0.0000
  22 C22         -2.3059    -0.3400     0.0687 C.3          1    LIG   0.0000
  23 N23          1.3510    -0.3507    -0.0042 N.2          1    LIG   0.0000
  24 N24          2.1402     0.7395    -0.0216 N.pl3        1    LIG   0.0000
  25 C25          1.3315     1.8610    -0.0129 C.2          1    LIG   0.0000
  26 C26          1.7165     3.1273    -0.0303 C.2          1    LIG   0.0000
  27 N27          0.7264     4.1198    -0.0169 N.2          1    LIG   0.0000
  28 N28          0.9827     5.3171    -0.0355 N.2          1    LIG   0.0000
  29 C29          2.2952     5.8156    -0.0719 C.2          1    LIG   0.0000
  30 O30          2.4495     7.0282    -0.0858 O.2          1    LIG   0.0000
  31 C31          3.4064     4.8837    -0.0923 C.ar         1    LIG   0.0000
  32 C32          4.7311     5.3063    -0.1307 C.ar         1    LIG   0.0000
  33 C33          5.7819     4.3958    -0.1458 C.ar         1    LIG   0.0000
  34 C34          5.5003     3.0339    -0.1209 C.ar         1    LIG   0.0000
  35 C35          4.1724     2.6212    -0.0806 C.ar         1    LIG   0.0000
  36 C36          3.1139     3.5267    -0.0643 C.ar         1    LIG   0.0000
  37 H           -3.1261    -1.1437    -1.6540 H            1    LIG   0.0000
  38 H           -4.4713    -0.6718     4.9167 H            1    LIG   0.0000
  39 H           -3.0509    -0.3170     5.6401 H            1    LIG   0.0000
  40 H           -4.0920     0.8803     5.2540 H            1    LIG   0.0000
  41 H           -2.7010    -0.7588     3.3265 H            1    LIG   0.0000
  42 H           -3.7422     0.4386     2.9404 H            1    LIG   0.0000
  43 H           -2.2999     2.0261     3.9748 H            1    LIG   0.0000
  44 H           -1.2588     0.8287     4.3608 H            1    LIG   0.0000
  45 H           -0.4394     0.7898     2.1844 H            1    LIG   0.0000
  46 H           -1.8388     1.8515    -0.6627 H            1    LIG   0.0000
  47 H           -0.9963     3.1436    -0.1267 H            1    LIG   0.0000
  48 H           -0.6089    -2.6559     0.9800 H            1    LIG   0.0000
  49 H            0.2209    -2.4877    -0.4163 H            1    LIG   0.0000
  50 H           -1.6180    -4.0875    -0.5006 H            1    LIG   0.0000
  51 H           -1.6314    -2.9602    -1.6821 H            1    LIG   0.0000
  52 H           -3.8200    -3.2519    -0.7626 H            1    LIG   0.0000
  53 H           -3.2541    -2.8056     0.7027 H            1    LIG   0.0000
  54 H           -4.8651    -0.7893     0.6134 H            1    LIG   0.0000
  55 H           -4.7940     0.2052    -0.6799 H            1    LIG   0.0000
  56 H           -6.0802    -1.2729    -1.9331 H            1    LIG   0.0000
  57 H           -6.6879    -3.8964    -2.1968 H            1    LIG   0.0000
  58 H           -7.9076    -5.5413    -0.9815 H            1    LIG   0.0000
  59 H           -6.3754    -5.4545    -0.4234 H            1    LIG   0.0000
  60 H           -7.5893    -4.7490     0.4104 H            1    LIG   0.0000
  61 H           -9.0169    -3.5120    -1.8830 H            1    LIG   0.0000
  62 H           -8.6985    -2.7197    -0.4910 H            1    LIG   0.0000
  63 H           -8.2144    -2.0902    -1.9179 H            1    LIG   0.0000
  64 H           -2.3013     0.5626    -0.3620 H            1    LIG   0.0000
  65 H           -2.6006    -0.2537     1.0204 H            1    LIG   0.0000
  66 H            3.1401     0.7386    -0.0381 H            1    LIG   0.0000
  67 H            4.9320     6.2857    -0.1478 H            1    LIG   0.0000
  68 H            6.7287     4.7162    -0.1742 H            1    LIG   0.0000
  69 H            6.2407     2.3619    -0.1318 H            1    LIG   0.0000
  70 H            3.9709     1.6419    -0.0626 H            1    LIG   0.0000
@<TRIPOS>BOND
   1        1        2 1
   2        2        3 1
   3        3        4 1
   4        4        5 am
   5        5        6 2
   6        5        7 1
   7        7        8 1
   8        8        9 1
   9        9       10 1
  10       10       11 1
  11       11       12 1
  12       12       13 1
  13       13       14 1
  14       14       15 1
  15       15       16 1
  16       16       17 am
  17       17       18 2
  18       17       19 1
  19       19       20 1
  20       19       21 1
  21       14       22 1
  22       22       10 1
  23        9       23 2
  24       23       24 1
  25       24       25 1
  26       25        8 1
  27       25       26 2
  28       26       27 1
  29       27       28 2
  30       28       29 1
  31       29       30 2
  32       29       31 1
  33       31       32 ar
  34       32       33 ar
  35       33       34 ar
  36       34       35 ar
  37       35       36 ar
  38       36       31 ar
  39       36       26 1
  40       14       37 1
  41        1       38 1
  42        1       39 1
  43        1       40 1
  44        2       41 1
  45        2       42 1
  46        3       43 1
  47        3       44 1
  48        4       45 1
  49        7       46 1
  50        7       47 1
  51       11       48 1
  52       11       49 1
  53       12       50 1
  54       12       51 1
  55       13       52 1
  56       13       53 1
  57       15       54 1
  58       15       55 1
  59       16       56 1
  60       19       57 1
  61       20       58 1
  62       20       59 1
  63       20       60 1
  64       21       61 1
  65       21       62 1
  66       21       63 1
  67       22       64 1
  68       22       65 1
  69       24       66 1
  70       32       67 1
  71       33       68 1
  72       34       69 1
  73       35       70 1

@<TRIPOS>MOLECULE

  70   73
SMALL
USER_CHARGES
@<TRIPOS>ATOM
   1 C1          -4.4349     2.4888    -4.9468 C.3          1    LIG   0.0000
   2 C2          -3.9760     2.2185    -3.5232 C.3          1    LIG   0.0000
   3 C3          -3.2554     3.4425    -2.9820 C.3          1    LIG   0.0000
   4 N4          -2.8116     3.1810    -1.6052 N.am         1    LIG   0.0000
   5 C5          -1.6732     2.4532    -1.3791 C.2          1    LIG   0.0000
   6 O6          -1.0383     2.0290    -2.3049 O.2          1    LIG   0.0000
   7 C7          -1.2143     2.1828     0.0446 C.3          1    LIG   0.0000
   8 N8           0.0213     1.3881     0.0183 N.pl3        1    LIG   0.0000
   9 C9           0.1399     0.0036     0.0195 C.2          1    LIG   0.0000
  10 N10         -0.9391    -0.8862     0.0421 N.pl3        1    LIG   0.0000
  11 C11         -0.6574    -2.3313     0.0354 C.3          1    LIG   0.0000
  12 C12         -1.7355    -3.1145    -0.6996 C.3          1    LIG   0.0000
  13 C13         -3.1396    -2.6965    -0.2847 C.3          1    LIG   0.0000
  14 C14         -3.2916    -1.2324    -0.6718 C.3          1    LIG   0.0000
  15 C15         -4.6984    -0.7412    -0.3714 C.3          1    LIG   0.0000
  16 N16         -5.6734    -1.5868    -1.0752 N.am         1    LIG   0.0000
  17 C17         -6.0247    -2.8049    -0.5559 C.2          1    LIG   0.0000
  18 O18         -5.5365    -3.1816     0.4736 O.2          1    LIG   0.0000
  19 C19         -7.0328    -3.6793    -1.2836 C.3          1    LIG   0.0000
  20 C20         -7.2444    -4.9661    -0.5027 C.3          1    LIG   0.0000
  21 C21         -8.3536    -2.9368    -1.4042 C.3          1    LIG   0.0000
  22 C22         -2.3059    -0.3400     0.0687 C.3          1    LIG   0.0000
  23 N23          1.3510    -0.3507    -0.0042 N.2          1    LIG   0.0000
  24 N24          2.1402     0.7395    -0.0216 N.pl3        1    LIG   0.0000
  25 C25          1.3315     1.8610    -0.0129 C.2          1    LIG   0.0000
  26 C26          1.7165     3.1273    -0.0303 C.2          1    LIG   0.0000
  27 N27          0.7264     4.1198    -0.0169 N.2          1    LIG   0.0000
  28 N28          0.9827     5.3171    -0.0355 N.2          1    LIG   0.0000
  29 C29          2.2952     5.8156    -0.0719 C.2          1    LIG   0.0000
  30 O30          2.4495     7.0282    -0.0858 O.2          1    LIG   0.0000
  31 C31          3.4064     4.8837    -0.0923 C.ar         1    LIG   0.0000
  32 C32          4.7311     5.3063    -0.1307 C.ar         1    LIG   0.0000
  33 C33          5.7819     4.3958    -0.1458 C.ar         1    LIG   0.0000
  34 C34          5.5003     3.0339    -0.1209 C.ar         1    LIG   0.0000
  35 C35          4.1724     2.6212    -0.0806 C.ar         1    LIG   0.0000
  36 C36          3.1139     3.5267    -0.0643 C.ar         1    LIG   0.0000
  37 H           -3.1261    -1.1437    -1.6540 H            1    LIG   0.0000
  38 H           -4.9090     1.6836    -5.3028 H            1    LIG   0.0000
  39 H           -5.0568     3.2719    -4.9535 H            1    LIG   0.0000
  40 H           -3.6408     2.6889    -5.5207 H            1    LIG   0.0000
  41 H           -4.7701     2.0184    -2.9493 H            1    LIG   0.0000
  42 H           -3.3541     1.4354    -3.5165 H            1    LIG   0.0000
  43 H           -2.4612     3.6426    -3.5559 H            1    LIG   0.0000
  44 H           -3.8773     4.2256    -2.9888 H            1    LIG   0.0000
  45 H           -3.3406     3.5345    -0.8337 H            1    LIG   0.0000
  46 H           -1.0423     3.0511     0.5099 H            1    LIG   0.0000
  47 H           -1.9252     1.6776     0.5337 H            1    LIG   0.0000
  48 H           -0.6089    -2.6559     0.9800 H            1    LIG   0.0000
  49 H            0.2209    -2.4877    -0.4163 H            1    LIG   0.0000
  50 H           -1.6180    -4.0875    -0.5006 H            1    LIG   0.0000
  51 H           -1.6314    -2.9602    -1.6821 H            1    LIG   0.0000
  52 H           -3.8200    -3.2519    -0.7626 H            1    LIG   0.0000
  53 H           -3.2541    -2.8056     0.7027 H            1    LIG   0.0000
  54 H           -4.8651    -0.7893     0.6134 H            1    LIG   0.0000
  55 H           -4.7940     0.2052    -0.6799 H            1    LIG   0.0000
  56 H           -6.0802    -1.2729    -1.9331 H            1    LIG   0.0000
  57 H           -6.6879    -3.8964    -2.1968 H            1    LIG   0.0000
  58 H           -7.9076    -5.5413    -0.9815 H            1    LIG   0.0000
  59 H           -6.3754    -5.4545    -0.4234 H            1    LIG   0.0000
  60 H           -7.5893    -4.7490     0.4104 H            1    LIG   0.0000
  61 H           -9.0169    -3.5120    -1.8830 H            1    LIG   0.0000
  62 H           -8.6985    -2.7197    -0.4910 H            1    LIG   0.0000
  63 H           -8.2144    -2.0902    -1.9179 H            1    LIG   0.0000
  64 H           -2.3013     0.5626    -0.3620 H            1    LIG   0.0000
  65 H           -2.6006    -0.2537     1.0204 H            1    LIG   0.0000
  66 H            3.1401     0.7386    -0.0381 H            1    LIG   0.0000
  67 H            4.9320     6.2857    -0.1478 H            1    LIG   0.0000
  68 H            6.7287     4.7162    -0.1742 H            1    LIG   0.0000
  69 H            6.2407     2.3619    -0.1318 H            1    LIG   0.0000
  70 H            3.9709     1.6419    -0.0626 H            1    LIG   0.0000
@<TRIPOS>BOND
   1        1        2 1
   2        2        3 1
   3        3        4 1
   4        4        5 am
   5        5        6 2
   6        5        7 1
   7        7        8 1
   8        8        9 1
   9        9       10 1
  10       10       11 1
  11       11       12 1
  12       12       13 1
  13       13       14 1
  14       14       15 1
  15       15       16 1
  16       16       17 am
  17       17       18 2
  18       17       19 1
  19       19       20 1
  20       19       21 1
  21       14       22 1
  22       22       10 1
  23        9       23 2
  24       23       24 1
  25       24       25 1
  26       25        8 1
  27       25       26 2
  28       26       27 1
  29       27       28 2
  30       28       29 1
  31       29       30 2
  32       29       31 1
  33       31       32 ar
  34       32       33 ar
  35       33       34 ar
  36       34       35 ar
  37       35       36 ar
  38       36       31 ar
  39       36       26 1
  40       14       37 1
  41        1       38 1
  42        1       39 1
  43        1       40 1
  44        2       41 1
  45        2       42 1
  46        3       43 1
  47        3       44 1
  48        4       45 1
  49        7       46 1
  50        7       47 1
  51       11       48 1
  52       11       49 1
  53       12       50 1
  54       12       51 1
  55       13       52 1
  56       13       53 1
  57       15       54 1
  58       15       55 1
  59       16       56 1
  60       19       57 1
  61       20       58 1
  62       20       59 1
  63       20       60 1
  64       21       61 1
  65       21       62 1
  66       21       63 1
  67       22       64 1
  68       22       65 1
  69       24       66 1
  70       32       67 1
  71       33       68 1
  72       34       69 1
  73       35       70 1

@<TRIPOS>MOLECULE

  70   73
SMALL
USER_CHARGES
@<TRIPOS>ATOM
   1 C1          -1.4364     3.9051    -5.6444 C.3          1    LIG   0.0000
   2 C2          -0.9775     3.6347    -4.2208 C.3          1    LIG   0.0000
   3 C3          -1.3922     2.2304    -3.8128 C.3          1    LIG   0.0000
   4 N4          -0.9484     1.9690    -2.4360 N.am         1    LIG   0.0000
   5 C5          -1.6732     2.4532    -1.3791 C.2          1    LIG   0.0000
   6 O6          -2.6703     3.0907    -1.5772 O.2          1    LIG   0.0000
   7 C7          -1.2143     2.1828     0.0446 C.3          1    LIG   0.0000
   8 N8           0.0213     1.3881     0.0183 N.pl3        1    LIG   0.0000
   9 C9           0.1399     0.0036     0.0195 C.2          1    LIG   0.0000
  10 N10         -0.9391    -0.8862     0.0421 N.pl3        1    LIG   0.0000
  11 C11         -0.6574    -2.3313     0.0354 C.3          1    LIG   0.0000
  12 C12         -1.7355    -3.1145    -0.6996 C.3          1    LIG   0.0000
  13 C13         -3.1396    -2.6965    -0.2847 C.3          1    LIG   0.0000
  14 C14         -3.2916    -1.2324    -0.6718 C.3          1    LIG   0.0000
  15 C15         -4.6984    -0.7412    -0.3714 C.3          1    LIG   0.0000
  16 N16         -5.6734    -1.5868    -1.0752 N.am         1    LIG   0.0000
  17 C17         -6.0247    -2.8049    -0.5559 C.2          1    LIG   0.0000
  18 O18         -5.5365    -3.1816     0.4736 O.2          1    LIG   0.0000
  19 C19         -7.0328    -3.6793    -1.2836 C.3          1    LIG   0.0000
  20 C20         -7.2444    -4.9661    -0.5027 C.3          1    LIG   0.0000
  21 C21         -8.3536    -2.9368    -1.4042 C.3          1    LIG   0.0000
  22 C22         -2.3059    -0.3400     0.0687 C.3          1    LIG   0.0000
  23 N23          1.3510    -0.3507    -0.0042 N.2          1    LIG   0.0000
  24 N24          2.1402     0.7395    -0.0216 N.pl3        1    LIG   0.0000
  25 C25          1.3315     1.8610    -0.0129 C.2          1    LIG   0.0000
  26 C26          1.7165     3.1273    -0.0303 C.2          1    LIG   0.0000
  27 N27          0.7264     4.1198    -0.0169 N.2          1    LIG   0.0000
  28 N28          0.9827     5.3171    -0.0355 N.2          1    LIG   0.0000
  29 C29          2.2952     5.8156    -0.0719 C.2          1    LIG   0.0000
  30 O30          2.4495     7.0282    -0.0858 O.2          1    LIG   0.0000
  31 C31          3.4064     4.8837    -0.0923 C.ar         1    LIG   0.0000
  32 C32          4.7311     5.3063    -0.1307 C.ar         1    LIG   0.0000
  33 C33          5.7819     4.3958    -0.1458 C.ar         1    LIG   0.0000
  34 C34          5.5003     3.0339    -0.1209 C.ar         1    LIG   0.0000
  35 C35          4.1724     2.6212    -0.0806 C.ar         1    LIG   0.0000
  36 C36          3.1139     3.5267    -0.0643 C.ar         1    LIG   0.0000
  37 H           -3.1261    -1.1437    -1.6540 H            1    LIG   0.0000
  38 H           -1.1635     4.8289    -5.9128 H            1    LIG   0.0000
  39 H           -1.0157     3.2406    -6.2621 H            1    LIG   0.0000
  40 H           -2.4318     3.8235    -5.6949 H            1    LIG   0.0000
  41 H            0.0179     3.7162    -4.1702 H            1    LIG   0.0000
  42 H           -1.3981     4.2992    -3.6031 H            1    LIG   0.0000
  43 H           -2.3876     2.1489    -3.8633 H            1    LIG   0.0000
  44 H           -0.9715     1.5659    -4.4305 H            1    LIG   0.0000
  45 H           -0.1174     1.4377    -2.2709 H            1    LIG   0.0000
  46 H           -1.0423     3.0511     0.5099 H            1    LIG   0.0000
  47 H           -1.9252     1.6776     0.5337 H            1    LIG   0.0000
  48 H           -0.6089    -2.6559     0.9800 H            1    LIG   0.0000
  49 H            0.2209    -2.4877    -0.4163 H            1    LIG   0.0000
  50 H           -1.6180    -4.0875    -0.5006 H            1    LIG   0.0000
  51 H           -1.6314    -2.9602    -1.6821 H            1    LIG   0.0000
  52 H           -3.8200    -3.2519    -0.7626 H            1    LIG   0.0000
  53 H           -3.2541    -2.8056     0.7027 H            1    LIG   0.0000
  54 H           -4.8651    -0.7893     0.6134 H            1    LIG   0.0000
  55 H           -4.7940     0.2052    -0.6799 H            1    LIG   0.0000
  56 H           -6.0802    -1.2729    -1.9331 H            1    LIG   0.0000
  57 H           -6.6879    -3.8964    -2.1968 H            1    LIG   0.0000
  58 H           -7.9076    -5.5413    -0.9815 H            1    LIG   0.0000
  59 H           -6.3754    -5.4545    -0.4234 H            1    LIG   0.0000
  60 H           -7.5893    -4.7490     0.4104 H            1    LIG   0.0000
  61 H           -9.0169    -3.5120    -1.8830 H            1    LIG   0.0000
  62 H           -8.6985    -2.7197    -0.4910 H            1    LIG   0.0000
  63 H           -8.2144    -2.0902    -1.9179 H            1    LIG   0.0000
  64 H           -2.3013     0.5626    -0.3620 H            1    LIG   0.0000
  65 H           -2.6006    -0.2537     1.0204 H            1    LIG   0.0000
  66 H            3.1401     0.7386    -0.0381 H            1    LIG   0.0000
  67 H            4.9320     6.2857    -0.1478 H            1    LIG   0.0000
  68 H            6.7287     4.7162    -0.1742 H            1    LIG   0.0000
  69 H            6.2407     2.3619    -0.1318 H            1    LIG   0.0000
  70 H            3.9709     1.6419    -0.0626 H            1    LIG   0.0000
@<TRIPOS>BOND
   1        1        2 1
   2        2        3 1
   3        3        4 1
   4        4        5 am
   5        5        6 2
   6        5        7 1
   7        7        8 1
   8        8        9 1
   9        9       10 1
  10       10       11 1
  11       11       12 1
  12       12       13 1
  13       13       14 1
  14       14       15 1
  15       15       16 1
  16       16       17 am
  17       17       18 2
  18       17       19 1
  19       19       20 1
  20       19       21 1
  21       14       22 1
  22       22       10 1
  23        9       23 2
  24       23       24 1
  25       24       25 1
  26       25        8 1
  27       25       26 2
  28       26       27 1
  29       27       28 2
  30       28       29 1
  31       29       30 2
  32       29       31 1
  33       31       32 ar
  34       32       33 ar
  35       33       34 ar
  36       34       35 ar
  37       35       36 ar
  38       36       31 ar
  39       36       26 1
  40       14       37 1
  41        1       38 1
  42        1       39 1
  43        1       40 1
  44        2       41 1
  45        2       42 1
  46        3       43 1
  47        3       44 1
  48        4       45 1
  49        7       46 1
  50        7       47 1
  51       11       48 1
  52       11       49 1
  53       12       50 1
  54       12       51 1
  55       13       52 1
  56       13       53 1
  57       15       54 1
  58       15       55 1
  59       16       56 1
  60       19       57 1
  61       20       58 1
  62       20       59 1
  63       20       60 1
  64       21       61 1
  65       21       62 1
  66       21       63 1
  67       22       64 1
  68       22       65 1
  69       24       66 1
  70       32       67 1
  71       33       68 1
  72       34       69 1
  73       35       70 1

@<TRIPOS>MOLECULE

  70   73
SMALL
USER_CHARGES
@<TRIPOS>ATOM
   1 C1          -1.6393     7.1426    -2.7176 C.3          1    LIG   0.0000
   2 C2          -1.7315     5.9710    -1.7536 C.3          1    LIG   0.0000
   3 C3          -2.4087     4.7986    -2.4444 C.3          1    LIG   0.0000
   4 N4          -2.4979     3.6656    -1.5121 N.am         1    LIG   0.0000
   5 C5          -1.4062     2.8656    -1.2998 C.2          1    LIG   0.0000
   6 O6          -0.6014     2.7040    -2.1751 O.2          1    LIG   0.0000
   7 C7          -1.2143     2.1828     0.0446 C.3          1    LIG   0.0000
   8 N8           0.0213     1.3881     0.0183 N.pl3        1    LIG   0.0000
   9 C9           0.1399     0.0036     0.0195 C.2          1    LIG   0.0000
  10 N10         -0.9391    -0.8862     0.0421 N.pl3        1    LIG   0.0000
  11 C11         -0.6574    -2.3313     0.0354 C.3          1    LIG   0.0000
  12 C12         -1.7355    -3.1145    -0.6996 C.3          1    LIG   0.0000
  13 C13         -3.1396    -2.6965    -0.2847 C.3          1    LIG   0.0000
  14 C14         -3.2916    -1.2324    -0.6718 C.3          1    LIG   0.0000
  15 C15         -4.6984    -0.7412    -0.3714 C.3          1    LIG   0.0000
  16 N16         -5.6734    -1.5868    -1.0752 N.am         1    LIG   0.0000
  17 C17         -6.0247    -2.8049    -0.5559 C.2          1    LIG   0.0000
  18 O18         -5.5365    -3.1816     0.4736 O.2          1    LIG   0.0000
  19 C19         -7.0328    -3.6793    -1.2836 C.3          1    LIG   0.0000
  20 C20         -7.2444    -4.9661    -0.5027 C.3          1    LIG   0.0000
  21 C21         -8.3536    -2.9368    -1.4042 C.3          1    LIG   0.0000
  22 C22         -2.3059    -0.3400     0.0687 C.3          1    LIG   0.0000
  23 N23          1.3510    -0.3507    -0.0042 N.2          1    LIG   0.0000
  24 N24          2.1402     0.7395    -0.0216 N.pl3        1    LIG   0.0000
  25 C25          1.3315     1.8610    -0.0129 C.2          1    LIG   0.0000
  26 C26          1.7165     3.1273    -0.0303 C.2          1    LIG   0.0000
  27 N27          0.7264     4.1198    -0.0169 N.2          1    LIG   0.0000
  28 N28          0.9827     5.3171    -0.0355 N.2          1    LIG   0.0000
  29 C29          2.2952     5.8156    -0.0719 C.2          1    LIG   0.0000
  30 O30          2.4495     7.0282    -0.0858 O.2          1    LIG   0.0000
  31 C31          3.4064     4.8837    -0.0923 C.ar         1    LIG   0.0000
  32 C32          4.7311     5.3063    -0.1307 C.ar         1    LIG   0.0000
  33 C33          5.7819     4.3958    -0.1458 C.ar         1    LIG   0.0000
  34 C34          5.5003     3.0339    -0.1209 C.ar         1    LIG   0.0000
  35 C35          4.1724     2.6212    -0.0806 C.ar         1    LIG   0.0000
  36 C36          3.1139     3.5267    -0.0643 C.ar         1    LIG   0.0000
  37 H           -3.1261    -1.1437    -1.6540 H            1    LIG   0.0000
  38 H           -1.1937     7.9140    -2.2631 H            1    LIG   0.0000
  39 H           -1.1047     6.8738    -3.5188 H            1    LIG   0.0000
  40 H           -2.5587     7.4110    -3.0050 H            1    LIG   0.0000
  41 H           -0.8121     5.7027    -1.4661 H            1    LIG   0.0000
  42 H           -2.2661     6.2399    -0.9524 H            1    LIG   0.0000
  43 H           -3.3282     5.0669    -2.7319 H            1    LIG   0.0000
  44 H           -1.8741     4.5298    -3.2456 H            1    LIG   0.0000
  45 H           -3.3555     3.4787    -1.0329 H            1    LIG   0.0000
  46 H           -1.1504     2.8747     0.7638 H            1    LIG   0.0000
  47 H           -1.9928     1.5826     0.2277 H            1    LIG   0.0000
  48 H           -0.6089    -2.6559     0.9800 H            1    LIG   0.0000
  49 H            0.2209    -2.4877    -0.4163 H            1    LIG   0.0000
  50 H           -1.6180    -4.0875    -0.5006 H            1    LIG   0.0000
  51 H           -1.6314    -2.9602    -1.6821 H            1    LIG   0.0000
  52 H           -3.8200    -3.2519    -0.7626 H            1    LIG   0.0000
  53 H           -3.2541    -2.8056     0.7027 H            1    LIG   0.0000
  54 H           -4.8651    -0.7893     0.6134 H            1    LIG   0.0000
  55 H           -4.7940     0.2052    -0.6799 H            1    LIG   0.0000
  56 H           -6.0802    -1.2729    -1.9331 H            1    LIG   0.0000
  57 H           -6.6879    -3.8964    -2.1968 H            1    LIG   0.0000
  58 H           -7.9076    -5.5413    -0.9815 H            1    LIG   0.0000
  59 H           -6.3754    -5.4545    -0.4234 H            1    LIG   0.0000
  60 H           -7.5893    -4.7490     0.4104 H            1    LIG   0.0000
  61 H           -9.0169    -3.5120    -1.8830 H            1    LIG   0.0000
  62 H           -8.6985    -2.7197    -0.4910 H            1    LIG   0.0000
  63 H           -8.2144    -2.0902    -1.9179 H            1    LIG   0.0000
  64 H           -2.3013     0.5626    -0.3620 H            1    LIG   0.0000
  65 H           -2.6006    -0.2537     1.0204 H            1    LIG   0.0000
  66 H            3.1401     0.7386    -0.0381 H            1    LIG   0.0000
  67 H            4.9320     6.2857    -0.1478 H            1    LIG   0.0000
  68 H            6.7287     4.7162    -0.1742 H            1    LIG   0.0000
  69 H            6.2407     2.3619    -0.1318 H            1    LIG   0.0000
  70 H            3.9709     1.6419    -0.0626 H            1    LIG   0.0000
@<TRIPOS>BOND
   1        1        2 1
   2        2        3 1
   3        3        4 1
   4        4        5 am
   5        5        6 2
   6        5        7 1
   7        7        8 1
   8        8        9 1
   9        9       10 1
  10       10       11 1
  11       11       12 1
  12       12       13 1
  13       13       14 1
  14       14       15 1
  15       15       16 1
  16       16       17 am
  17       17       18 2
  18       17       19 1
  19       19       20 1
  20       19       21 1
  21       14       22 1
  22       22       10 1
  23        9       23 2
  24       23       24 1
  25       24       25 1
  26       25        8 1
  27       25       26 2
  28       26       27 1
  29       27       28 2
  30       28       29 1
  31       29       30 2
  32       29       31 1
  33       31       32 ar
  34       32       33 ar
  35       33       34 ar
  36       34       35 ar
  37       35       36 ar
  38       36       31 ar
  39       36       26 1
  40       14       37 1
  41        1       38 1
  42        1       39 1
  43        1       40 1
  44        2       41 1
  45        2       42 1
  46        3       43 1
  47        3       44 1
  48        4       45 1
  49        7       46 1
  50        7       47 1
  51       11       48 1
  52       11       49 1
  53       12       50 1
  54       12       51 1
  55       13       52 1
  56       13       53 1
  57       15       54 1
  58       15       55 1
  59       16       56 1
  60       19       57 1
  61       20       58 1
  62       20       59 1
  63       20       60 1
  64       21       61 1
  65       21       62 1
  66       21       63 1
  67       22       64 1
  68       22       65 1
  69       24       66 1
  70       32       67 1
  71       33       68 1
  72       34       69 1
  73       35       70 1

@<TRIPOS>MOLECULE

  70   73
SMALL
USER_CHARGES
@<TRIPOS>ATOM
   1 C1           0.9053     5.8967    -3.7136 C.3          1    LIG   0.0000
   2 C2           0.6637     4.7983    -2.6912 C.3          1    LIG   0.0000
   3 C3          -0.2537     3.7434    -3.2880 C.3          1    LIG   0.0000
   4 N4          -0.4874     2.6812    -2.2991 N.am         1    LIG   0.0000
   5 C5          -1.4062     2.8656    -1.2998 C.2          1    LIG   0.0000
   6 O6          -2.3624     3.5663    -1.4858 O.2          1    LIG   0.0000
   7 C7          -1.2143     2.1828     0.0446 C.3          1    LIG   0.0000
   8 N8           0.0213     1.3881     0.0183 N.pl3        1    LIG   0.0000
   9 C9           0.1399     0.0036     0.0195 C.2          1    LIG   0.0000
  10 N10         -0.9391    -0.8862     0.0421 N.pl3        1    LIG   0.0000
  11 C11         -0.6574    -2.3313     0.0354 C.3          1    LIG   0.0000
  12 C12         -1.7355    -3.1145    -0.6996 C.3          1    LIG   0.0000
  13 C13         -3.1396    -2.6965    -0.2847 C.3          1    LIG   0.0000
  14 C14         -3.2916    -1.2324    -0.6718 C.3          1    LIG   0.0000
  15 C15         -4.6984    -0.7412    -0.3714 C.3          1    LIG   0.0000
  16 N16         -5.6734    -1.5868    -1.0752 N.am         1    LIG   0.0000
  17 C17         -6.0247    -2.8049    -0.5559 C.2          1    LIG   0.0000
  18 O18         -5.5365    -3.1816     0.4736 O.2          1    LIG   0.0000
  19 C19         -7.0328    -3.6793    -1.2836 C.3          1    LIG   0.0000
  20 C20         -8.2291    -3.9322    -0.3807 C.3          1    LIG   0.0000
  21 C21         -7.4933    -2.9754    -2.5496 C.3          1    LIG   0.0000
  22 C22         -2.3059    -0.3400     0.0687 C.3          1    LIG   0.0000
  23 N23          1.3510    -0.3507    -0.0042 N.2          1    LIG   0.0000
  24 N24          2.1402     0.7395    -0.0216 N.pl3        1    LIG   0.0000
  25 C25          1.3315     1.8610    -0.0129 C.2          1    LIG   0.0000
  26 C26          1.7165     3.1273    -0.0303 C.2          1    LIG   0.0000
  27 N27          0.7264     4.1198    -0.0169 N.2          1    LIG   0.0000
  28 N28          0.9827     5.3171    -0.0355 N.2          1    LIG   0.0000
  29 C29          2.2952     5.8156    -0.0719 C.2          1    LIG   0.0000
  30 O30          2.4495     7.0282    -0.0858 O.2          1    LIG   0.0000
  31 C31          3.4064     4.8837    -0.0923 C.ar         1    LIG   0.0000
  32 C32          4.7311     5.3063    -0.1307 C.ar         1    LIG   0.0000
  33 C33          5.7819     4.3958    -0.1458 C.ar         1    LIG   0.0000
  34 C34          5.5003     3.0339    -0.1209 C.ar         1    LIG   0.0000
  35 C35          4.1724     2.6212    -0.0806 C.ar         1    LIG   0.0000
  36 C36          3.1139     3.5267    -0.0643 C.ar         1    LIG   0.0000
  37 H           -3.1261    -1.1437    -1.6540 H            1    LIG   0.0000
  38 H            1.5088     6.5907    -3.3210 H            1    LIG   0.0000
  39 H            1.3331     5.5054    -4.5285 H            1    LIG   0.0000
  40 H            0.0331     6.3167    -3.9642 H            1    LIG   0.0000
  41 H            1.5359     4.3783    -2.4407 H            1    LIG   0.0000
  42 H            0.2359     5.1896    -1.8764 H            1    LIG   0.0000
  43 H           -1.1260     4.1634    -3.5385 H            1    LIG   0.0000
  44 H            0.1741     3.3521    -4.1028 H            1    LIG   0.0000
  45 H            0.0243     1.8238    -2.3559 H            1    LIG   0.0000
  46 H           -1.1504     2.8747     0.7638 H            1    LIG   0.0000
  47 H           -1.9928     1.5826     0.2277 H            1    LIG   0.0000
  48 H           -0.6089    -2.6559     0.9800 H            1    LIG   0.0000
  49 H            0.2209    -2.4877    -0.4163 H            1    LIG   0.0000
  50 H           -1.6180    -4.0875    -0.5006 H            1    LIG   0.0000
  51 H           -1.6314    -2.9602    -1.6821 H            1    LIG   0.0000
  52 H           -3.8200    -3.2519    -0.7626 H            1    LIG   0.0000
  53 H           -3.2541    -2.8056     0.7027 H            1    LIG   0.0000
  54 H           -4.8651    -0.7893     0.6134 H            1    LIG   0.0000
  55 H           -4.7940     0.2052    -0.6799 H            1    LIG   0.0000
  56 H           -6.0802    -1.2729    -1.9331 H            1    LIG   0.0000
  57 H           -6.6060    -4.5512    -1.5235 H            1    LIG   0.0000
  58 H           -8.8924    -4.5074    -0.8595 H            1    LIG   0.0000
  59 H           -7.9262    -4.3952     0.4522 H            1    LIG   0.0000
  60 H           -8.6560    -3.0602    -0.1409 H            1    LIG   0.0000
  61 H           -8.1565    -3.5506    -3.0284 H            1    LIG   0.0000
  62 H           -7.9201    -2.1034    -2.3098 H            1    LIG   0.0000
  63 H           -6.7062    -2.8090    -3.1436 H            1    LIG   0.0000
  64 H           -2.3013     0.5626    -0.3620 H            1    LIG   0.0000
  65 H           -2.6006    -0.2537     1.0204 H            1    LIG   0.0000
  66 H            3.1401     0.7386    -0.0381 H            1    LIG   0.0000
  67 H            4.9320     6.2857    -0.1478 H            1    LIG   0.0000
  68 H            6.7287     4.7162    -0.1742 H            1    LIG   0.0000
  69 H            6.2407     2.3619    -0.1318 H            1    LIG   0.0000
  70 H            3.9709     1.6419    -0.0626 H            1    LIG   0.0000
@<TRIPOS>BOND
   1        1        2 1
   2        2        3 1
   3        3        4 1
   4        4        5 am
   5        5        6 2
   6        5        7 1
   7        7        8 1
   8        8        9 1
   9        9       10 1
  10       10       11 1
  11       11       12 1
  12       12       13 1
  13       13       14 1
  14       14       15 1
  15       15       16 1
  16       16       17 am
  17       17       18 2
  18       17       19 1
  19       19       20 1
  20       19       21 1
  21       14       22 1
  22       22       10 1
  23        9       23 2
  24       23       24 1
  25       24       25 1
  26       25        8 1
  27       25       26 2
  28       26       27 1
  29       27       28 2
  30       28       29 1
  31       29       30 2
  32       29       31 1
  33       31       32 ar
  34       32       33 ar
  35       33       34 ar
  36       34       35 ar
  37       35       36 ar
  38       36       31 ar
  39       36       26 1
  40       14       37 1
  41        1       38 1
  42        1       39 1
  43        1       40 1
  44        2       41 1
  45        2       42 1
  46        3       43 1
  47        3       44 1
  48        4       45 1
  49        7       46 1
  50        7       47 1
  51       11       48 1
  52       11       49 1
  53       12       50 1
  54       12       51 1
  55       13       52 1
  56       13       53 1
  57       15       54 1
  58       15       55 1
  59       16       56 1
  60       19       57 1
  61       20       58 1
  62       20       59 1
  63       20       60 1
  64       21       61 1
  65       21       62 1
  66       21       63 1
  67       22       64 1
  68       22       65 1
  69       24       66 1
  70       32       67 1
  71       33       68 1
  72       34       69 1
  73       35       70 1

@<TRIPOS>MOLECULE

  70   73
SMALL
USER_CHARGES
@<TRIPOS>ATOM
   1 C1          -4.2632    -1.6636     3.2068 C.3          1    LIG   0.0000
   2 C2          -3.3274    -0.7937     2.3833 C.3          1    LIG   0.0000
   3 C3          -3.8582     0.6301     2.3489 C.3          1    LIG   0.0000
   4 N4          -3.2668     1.3462     1.2094 N.am         1    LIG   0.0000
   5 C5          -1.9993     1.8574     1.3048 C.2          1    LIG   0.0000
   6 O6          -1.5089     2.0482     2.3833 O.2          1    LIG   0.0000
   7 C7          -1.2143     2.1828     0.0446 C.3          1    LIG   0.0000
   8 N8           0.0213     1.3881     0.0183 N.pl3        1    LIG   0.0000
   9 C9           0.1399     0.0036     0.0195 C.2          1    LIG   0.0000
  10 N10         -0.9391    -0.8862     0.0421 N.pl3        1    LIG   0.0000
  11 C11         -0.6574    -2.3313     0.0354 C.3          1    LIG   0.0000
  12 C12         -1.7355    -3.1145    -0.6996 C.3          1    LIG   0.0000
  13 C13         -3.1396    -2.6965    -0.2847 C.3          1    LIG   0.0000
  14 C14         -3.2916    -1.2324    -0.6718 C.3          1    LIG   0.0000
  15 C15         -4.6984    -0.7412    -0.3714 C.3          1    LIG   0.0000
  16 N16         -5.6734    -1.5868    -1.0752 N.am         1    LIG   0.0000
  17 C17         -6.0247    -2.8049    -0.5559 C.2          1    LIG   0.0000
  18 O18         -5.8394    -3.0375     0.6067 O.2          1    LIG   0.0000
  19 C19         -6.6491    -3.8618    -1.4522 C.3          1    LIG   0.0000
  20 C20         -6.9416    -5.1101    -0.6358 C.3          1    LIG   0.0000
  21 C21         -7.9442    -3.3263    -2.0407 C.3          1    LIG   0.0000
  22 C22         -2.3059    -0.3400     0.0687 C.3          1    LIG   0.0000
  23 N23          1.3510    -0.3507    -0.0042 N.2          1    LIG   0.0000
  24 N24          2.1402     0.7395    -0.0216 N.pl3        1    LIG   0.0000
  25 C25          1.3315     1.8610    -0.0129 C.2          1    LIG   0.0000
  26 C26          1.7165     3.1273    -0.0303 C.2          1    LIG   0.0000
  27 N27          0.7264     4.1198    -0.0169 N.2          1    LIG   0.0000
  28 N28          0.9827     5.3171    -0.0355 N.2          1    LIG   0.0000
  29 C29          2.2952     5.8156    -0.0719 C.2          1    LIG   0.0000
  30 O30          2.4495     7.0282    -0.0858 O.2          1    LIG   0.0000
  31 C31          3.4064     4.8837    -0.0923 C.ar         1    LIG   0.0000
  32 C32          4.7311     5.3063    -0.1307 C.ar         1    LIG   0.0000
  33 C33          5.7819     4.3958    -0.1458 C.ar         1    LIG   0.0000
  34 C34          5.5003     3.0339    -0.1209 C.ar         1    LIG   0.0000
  35 C35          4.1724     2.6212    -0.0806 C.ar         1    LIG   0.0000
  36 C36          3.1139     3.5267    -0.0643 C.ar         1    LIG   0.0000
  37 H           -3.1261    -1.1437    -1.6540 H            1    LIG   0.0000
  38 H           -3.9139    -2.6003     3.2295 H            1    LIG   0.0000
  39 H           -4.3173    -1.3054     4.1389 H            1    LIG   0.0000
  40 H           -5.1739    -1.6572     2.7939 H            1    LIG   0.0000
  41 H           -2.4167    -0.8001     2.7962 H            1    LIG   0.0000
  42 H           -3.2733    -1.1519     1.4512 H            1    LIG   0.0000
  43 H           -4.8533     0.6127     2.2515 H            1    LIG   0.0000
  44 H           -3.6147     1.0973     3.1989 H            1    LIG   0.0000
  45 H           -3.7896     1.4601     0.3647 H            1    LIG   0.0000
  46 H           -1.7682     1.9645    -0.7589 H            1    LIG   0.0000
  47 H           -0.9848     3.1561     0.0368 H            1    LIG   0.0000
  48 H           -0.6089    -2.6559     0.9800 H            1    LIG   0.0000
  49 H            0.2209    -2.4877    -0.4163 H            1    LIG   0.0000
  50 H           -1.6180    -4.0875    -0.5006 H            1    LIG   0.0000
  51 H           -1.6314    -2.9602    -1.6821 H            1    LIG   0.0000
  52 H           -3.8200    -3.2519    -0.7626 H            1    LIG   0.0000
  53 H           -3.2541    -2.8056     0.7027 H            1    LIG   0.0000
  54 H           -4.8651    -0.7893     0.6134 H            1    LIG   0.0000
  55 H           -4.7940     0.2052    -0.6799 H            1    LIG   0.0000
  56 H           -6.0802    -1.2729    -1.9331 H            1    LIG   0.0000
  57 H           -6.0154    -4.0882    -2.1919 H            1    LIG   0.0000
  58 H           -7.3524    -5.8054    -1.2255 H            1    LIG   0.0000
  59 H           -6.0896    -5.4624    -0.2486 H            1    LIG   0.0000
  60 H           -7.5753    -4.8837     0.1039 H            1    LIG   0.0000
  61 H           -8.3550    -4.0216    -2.6304 H            1    LIG   0.0000
  62 H           -8.5779    -3.0998    -1.3010 H            1    LIG   0.0000
  63 H           -7.7517    -2.5050    -2.5779 H            1    LIG   0.0000
  64 H           -2.3013     0.5626    -0.3620 H            1    LIG   0.0000
  65 H           -2.6006    -0.2537     1.0204 H            1    LIG   0.0000
  66 H            3.1401     0.7386    -0.0381 H            1    LIG   0.0000
  67 H            4.9320     6.2857    -0.1478 H            1    LIG   0.0000
  68 H            6.7287     4.7162    -0.1742 H            1    LIG   0.0000
  69 H            6.2407     2.3619    -0.1318 H            1    LIG   0.0000
  70 H            3.9709     1.6419    -0.0626 H            1    LIG   0.0000
@<TRIPOS>BOND
   1        1        2 1
   2        2        3 1
   3        3        4 1
   4        4        5 am
   5        5        6 2
   6        5        7 1
   7        7        8 1
   8        8        9 1
   9        9       10 1
  10       10       11 1
  11       11       12 1
  12       12       13 1
  13       13       14 1
  14       14       15 1
  15       15       16 1
  16       16       17 am
  17       17       18 2
  18       17       19 1
  19       19       20 1
  20       19       21 1
  21       14       22 1
  22       22       10 1
  23        9       23 2
  24       23       24 1
  25       24       25 1
  26       25        8 1
  27       25       26 2
  28       26       27 1
  29       27       28 2
  30       28       29 1
  31       29       30 2
  32       29       31 1
  33       31       32 ar
  34       32       33 ar
  35       33       34 ar
  36       34       35 ar
  37       35       36 ar
  38       36       31 ar
  39       36       26 1
  40       14       37 1
  41        1       38 1
  42        1       39 1
  43        1       40 1
  44        2       41 1
  45        2       42 1
  46        3       43 1
  47        3       44 1
  48        4       45 1
  49        7       46 1
  50        7       47 1
  51       11       48 1
  52       11       49 1
  53       12       50 1
  54       12       51 1
  55       13       52 1
  56       13       53 1
  57       15       54 1
  58       15       55 1
  59       16       56 1
  60       19       57 1
  61       20       58 1
  62       20       59 1
  63       20       60 1
  64       21       61 1
  65       21       62 1
  66       21       63 1
  67       22       64 1
  68       22       65 1
  69       24       66 1
  70       32       67 1
  71       33       68 1
  72       34       69 1
  73       35       70 1

@<TRIPOS>MOLECULE

  70   73
SMALL
USER_CHARGES
@<TRIPOS>ATOM
   1 C1          -6.4581     2.7094     2.6228 C.3          1    LIG   0.0000
   2 C2          -5.1770     2.7449     1.8056 C.3          1    LIG   0.0000
   3 C3          -4.2537     1.6271     2.2620 C.3          1    LIG   0.0000
   4 N4          -3.2668     1.3462     1.2094 N.am         1    LIG   0.0000
   5 C5          -1.9993     1.8574     1.3048 C.2          1    LIG   0.0000
   6 O6          -1.5089     2.0482     2.3833 O.2          1    LIG   0.0000
   7 C7          -1.2143     2.1828     0.0446 C.3          1    LIG   0.0000
   8 N8           0.0213     1.3881     0.0183 N.pl3        1    LIG   0.0000
   9 C9           0.1399     0.0036     0.0195 C.2          1    LIG   0.0000
  10 N10         -0.9391    -0.8862     0.0421 N.pl3        1    LIG   0.0000
  11 C11         -0.6574    -2.3313     0.0354 C.3          1    LIG   0.0000
  12 C12         -1.7355    -3.1145    -0.6996 C.3          1    LIG   0.0000
  13 C13         -3.1396    -2.6965    -0.2847 C.3          1    LIG   0.0000
  14 C14         -3.2916    -1.2324    -0.6718 C.3          1    LIG   0.0000
  15 C15         -4.6984    -0.7412    -0.3714 C.3          1    LIG   0.0000
  16 N16         -5.6734    -1.5868    -1.0752 N.am         1    LIG   0.0000
  17 C17         -6.0247    -2.8049    -0.5559 C.2          1    LIG   0.0000
  18 O18         -5.8394    -3.0375     0.6067 O.2          1    LIG   0.0000
  19 C19         -6.6491    -3.8618    -1.4522 C.3          1    LIG   0.0000
  20 C20         -6.9416    -5.1101    -0.6358 C.3          1    LIG   0.0000
  21 C21         -7.9442    -3.3263    -2.0407 C.3          1    LIG   0.0000
  22 C22         -2.3059    -0.3400     0.0687 C.3          1    LIG   0.0000
  23 N23          1.3510    -0.3507    -0.0042 N.2          1    LIG   0.0000
  24 N24          2.1402     0.7395    -0.0216 N.pl3        1    LIG   0.0000
  25 C25          1.3315     1.8610    -0.0129 C.2          1    LIG   0.0000
  26 C26          1.7165     3.1273    -0.0303 C.2          1    LIG   0.0000
  27 N27          0.7264     4.1198    -0.0169 N.2          1    LIG   0.0000
  28 N28          0.9827     5.3171    -0.0355 N.2          1    LIG   0.0000
  29 C29          2.2952     5.8156    -0.0719 C.2          1    LIG   0.0000
  30 O30          2.4495     7.0282    -0.0858 O.2          1    LIG   0.0000
  31 C31          3.4064     4.8837    -0.0923 C.ar         1    LIG   0.0000
  32 C32          4.7311     5.3063    -0.1307 C.ar         1    LIG   0.0000
  33 C33          5.7819     4.3958    -0.1458 C.ar         1    LIG   0.0000
  34 C34          5.5003     3.0339    -0.1209 C.ar         1    LIG   0.0000
  35 C35          4.1724     2.6212    -0.0806 C.ar         1    LIG   0.0000
  36 C36          3.1139     3.5267    -0.0643 C.ar         1    LIG   0.0000
  37 H           -3.1261    -1.1437    -1.6540 H            1    LIG   0.0000
  38 H           -7.0656     3.4449     2.3225 H            1    LIG   0.0000
  39 H           -6.9122     1.8280     2.4927 H            1    LIG   0.0000
  40 H           -6.2395     2.8320     3.5909 H            1    LIG   0.0000
  41 H           -5.3957     2.6223     0.8375 H            1    LIG   0.0000
  42 H           -4.7230     3.6263     1.9357 H            1    LIG   0.0000
  43 H           -3.7800     1.9062     3.0973 H            1    LIG   0.0000
  44 H           -4.7915     0.8036     2.4431 H            1    LIG   0.0000
  45 H           -3.5206     0.7819     0.4238 H            1    LIG   0.0000
  46 H           -1.7682     1.9645    -0.7589 H            1    LIG   0.0000
  47 H           -0.9848     3.1561     0.0368 H            1    LIG   0.0000
  48 H           -0.6089    -2.6559     0.9800 H            1    LIG   0.0000
  49 H            0.2209    -2.4877    -0.4163 H            1    LIG   0.0000
  50 H           -1.6180    -4.0875    -0.5006 H            1    LIG   0.0000
  51 H           -1.6314    -2.9602    -1.6821 H            1    LIG   0.0000
  52 H           -3.8200    -3.2519    -0.7626 H            1    LIG   0.0000
  53 H           -3.2541    -2.8056     0.7027 H            1    LIG   0.0000
  54 H           -4.8651    -0.7893     0.6134 H            1    LIG   0.0000
  55 H           -4.7940     0.2052    -0.6799 H            1    LIG   0.0000
  56 H           -6.0802    -1.2729    -1.9331 H            1    LIG   0.0000
  57 H           -6.0154    -4.0882    -2.1919 H            1    LIG   0.0000
  58 H           -7.3524    -5.8054    -1.2255 H            1    LIG   0.0000
  59 H           -6.0896    -5.4624    -0.2486 H            1    LIG   0.0000
  60 H           -7.5753    -4.8837     0.1039 H            1    LIG   0.0000
  61 H           -8.3550    -4.0216    -2.6304 H            1    LIG   0.0000
  62 H           -8.5779    -3.0998    -1.3010 H            1    LIG   0.0000
  63 H           -7.7517    -2.5050    -2.5779 H            1    LIG   0.0000
  64 H           -2.3013     0.5626    -0.3620 H            1    LIG   0.0000
  65 H           -2.6006    -0.2537     1.0204 H            1    LIG   0.0000
  66 H            3.1401     0.7386    -0.0381 H            1    LIG   0.0000
  67 H            4.9320     6.2857    -0.1478 H            1    LIG   0.0000
  68 H            6.7287     4.7162    -0.1742 H            1    LIG   0.0000
  69 H            6.2407     2.3619    -0.1318 H            1    LIG   0.0000
  70 H            3.9709     1.6419    -0.0626 H            1    LIG   0.0000
@<TRIPOS>BOND
   1        1        2 1
   2        2        3 1
   3        3        4 1
   4        4        5 am
   5        5        6 2
   6        5        7 1
   7        7        8 1
   8        8        9 1
   9        9       10 1
  10       10       11 1
  11       11       12 1
  12       12       13 1
  13       13       14 1
  14       14       15 1
  15       15       16 1
  16       16       17 am
  17       17       18 2
  18       17       19 1
  19       19       20 1
  20       19       21 1
  21       14       22 1
  22       22       10 1
  23        9       23 2
  24       23       24 1
  25       24       25 1
  26       25        8 1
  27       25       26 2
  28       26       27 1
  29       27       28 2
  30       28       29 1
  31       29       30 2
  32       29       31 1
  33       31       32 ar
  34       32       33 ar
  35       33       34 ar
  36       34       35 ar
  37       35       36 ar
  38       36       31 ar
  39       36       26 1
  40       14       37 1
  41        1       38 1
  42        1       39 1
  43        1       40 1
  44        2       41 1
  45        2       42 1
  46        3       43 1
  47        3       44 1
  48        4       45 1
  49        7       46 1
  50        7       47 1
  51       11       48 1
  52       11       49 1
  53       12       50 1
  54       12       51 1
  55       13       52 1
  56       13       53 1
  57       15       54 1
  58       15       55 1
  59       16       56 1
  60       19       57 1
  61       20       58 1
  62       20       59 1
  63       20       60 1
  64       21       61 1
  65       21       62 1
  66       21       63 1
  67       22       64 1
  68       22       65 1
  69       24       66 1
  70       32       67 1
  71       33       68 1
  72       34       69 1
  73       35       70 1

@<TRIPOS>MOLECULE

  70   73
SMALL
USER_CHARGES
@<TRIPOS>ATOM
   1 C1          -1.2469     2.2382     5.7372 C.3          1    LIG   0.0000
   2 C2          -0.9190     2.1079     4.2587 C.3          1    LIG   0.0000
   3 C3          -1.8286     1.0662     3.6279 C.3          1    LIG   0.0000
   4 N4          -1.5115     0.9402     2.1980 N.am         1    LIG   0.0000
   5 C5          -1.9993     1.8574     1.3048 C.2          1    LIG   0.0000
   6 O6          -3.0464     2.4038     1.5173 O.2          1    LIG   0.0000
   7 C7          -1.2143     2.1828     0.0446 C.3          1    LIG   0.0000
   8 N8           0.0213     1.3881     0.0183 N.pl3        1    LIG   0.0000
   9 C9           0.1399     0.0036     0.0195 C.2          1    LIG   0.0000
  10 N10         -0.9391    -0.8862     0.0421 N.pl3        1    LIG   0.0000
  11 C11         -0.6574    -2.3313     0.0354 C.3          1    LIG   0.0000
  12 C12         -1.7355    -3.1145    -0.6996 C.3          1    LIG   0.0000
  13 C13         -3.1396    -2.6965    -0.2847 C.3          1    LIG   0.0000
  14 C14         -3.2916    -1.2324    -0.6718 C.3          1    LIG   0.0000
  15 C15         -4.6984    -0.7412    -0.3714 C.3          1    LIG   0.0000
  16 N16         -5.6734    -1.5868    -1.0752 N.am         1    LIG   0.0000
  17 C17         -6.0247    -2.8049    -0.5559 C.2          1    LIG   0.0000
  18 O18         -5.8394    -3.0375     0.6067 O.2          1    LIG   0.0000
  19 C19         -6.6491    -3.8618    -1.4522 C.3          1    LIG   0.0000
  20 C20         -6.9416    -5.1101    -0.6358 C.3          1    LIG   0.0000
  21 C21         -7.9442    -3.3263    -2.0407 C.3          1    LIG   0.0000
  22 C22         -2.3059    -0.3400     0.0687 C.3          1    LIG   0.0000
  23 N23          1.3510    -0.3507    -0.0042 N.2          1    LIG   0.0000
  24 N24          2.1402     0.7395    -0.0216 N.pl3        1    LIG   0.0000
  25 C25          1.3315     1.8610    -0.0129 C.2          1    LIG   0.0000
  26 C26          1.7165     3.1273    -0.0303 C.2          1    LIG   0.0000
  27 N27          0.7264     4.1198    -0.0169 N.2          1    LIG   0.0000
  28 N28          0.9827     5.3171    -0.0355 N.2          1    LIG   0.0000
  29 C29          2.2952     5.8156    -0.0719 C.2          1    LIG   0.0000
  30 O30          2.4495     7.0282    -0.0858 O.2          1    LIG   0.0000
  31 C31          3.4064     4.8837    -0.0923 C.ar         1    LIG   0.0000
  32 C32          4.7311     5.3063    -0.1307 C.ar         1    LIG   0.0000
  33 C33          5.7819     4.3958    -0.1458 C.ar         1    LIG   0.0000
  34 C34          5.5003     3.0339    -0.1209 C.ar         1    LIG   0.0000
  35 C35          4.1724     2.6212    -0.0806 C.ar         1    LIG   0.0000
  36 C36          3.1139     3.5267    -0.0643 C.ar         1    LIG   0.0000
  37 H           -3.1261    -1.1437    -1.6540 H            1    LIG   0.0000
  38 H           -0.6485     2.9235     6.1522 H            1    LIG   0.0000
  39 H           -2.2005     2.5200     5.8436 H            1    LIG   0.0000
  40 H           -1.1075     1.3567     6.1885 H            1    LIG   0.0000
  41 H           -1.0585     2.9893     3.8074 H            1    LIG   0.0000
  42 H            0.0345     1.8261     4.1523 H            1    LIG   0.0000
  43 H           -1.6892     0.1848     4.0792 H            1    LIG   0.0000
  44 H           -2.7822     1.3480     3.7343 H            1    LIG   0.0000
  45 H           -0.9398     0.1851     1.8773 H            1    LIG   0.0000
  46 H           -1.7682     1.9645    -0.7589 H            1    LIG   0.0000
  47 H           -0.9848     3.1561     0.0368 H            1    LIG   0.0000
  48 H           -0.6089    -2.6559     0.9800 H            1    LIG   0.0000
  49 H            0.2209    -2.4877    -0.4163 H            1    LIG   0.0000
  50 H           -1.6180    -4.0875    -0.5006 H            1    LIG   0.0000
  51 H           -1.6314    -2.9602    -1.6821 H            1    LIG   0.0000
  52 H           -3.8200    -3.2519    -0.7626 H            1    LIG   0.0000
  53 H           -3.2541    -2.8056     0.7027 H            1    LIG   0.0000
  54 H           -4.8651    -0.7893     0.6134 H            1    LIG   0.0000
  55 H           -4.7940     0.2052    -0.6799 H            1    LIG   0.0000
  56 H           -6.0802    -1.2729    -1.9331 H            1    LIG   0.0000
  57 H           -6.0154    -4.0882    -2.1919 H            1    LIG   0.0000
  58 H           -7.3524    -5.8054    -1.2255 H            1    LIG   0.0000
  59 H           -6.0896    -5.4624    -0.2486 H            1    LIG   0.0000
  60 H           -7.5753    -4.8837     0.1039 H            1    LIG   0.0000
  61 H           -8.3550    -4.0216    -2.6304 H            1    LIG   0.0000
  62 H           -8.5779    -3.0998    -1.3010 H            1    LIG   0.0000
  63 H           -7.7517    -2.5050    -2.5779 H            1    LIG   0.0000
  64 H           -2.3013     0.5626    -0.3620 H            1    LIG   0.0000
  65 H           -2.6006    -0.2537     1.0204 H            1    LIG   0.0000
  66 H            3.1401     0.7386    -0.0381 H            1    LIG   0.0000
  67 H            4.9320     6.2857    -0.1478 H            1    LIG   0.0000
  68 H            6.7287     4.7162    -0.1742 H            1    LIG   0.0000
  69 H            6.2407     2.3619    -0.1318 H            1    LIG   0.0000
  70 H            3.9709     1.6419    -0.0626 H            1    LIG   0.0000
@<TRIPOS>BOND
   1        1        2 1
   2        2        3 1
   3        3        4 1
   4        4        5 am
   5        5        6 2
   6        5        7 1
   7        7        8 1
   8        8        9 1
   9        9       10 1
  10       10       11 1
  11       11       12 1
  12       12       13 1
  13       13       14 1
  14       14       15 1
  15       15       16 1
  16       16       17 am
  17       17       18 2
  18       17       19 1
  19       19       20 1
  20       19       21 1
  21       14       22 1
  22       22       10 1
  23        9       23 2
  24       23       24 1
  25       24       25 1
  26       25        8 1
  27       25       26 2
  28       26       27 1
  29       27       28 2
  30       28       29 1
  31       29       30 2
  32       29       31 1
  33       31       32 ar
  34       32       33 ar
  35       33       34 ar
  36       34       35 ar
  37       35       36 ar
  38       36       31 ar
  39       36       26 1
  40       14       37 1
  41        1       38 1
  42        1       39 1
  43        1       40 1
  44        2       41 1
  45        2       42 1
  46        3       43 1
  47        3       44 1
  48        4       45 1
  49        7       46 1
  50        7       47 1
  51       11       48 1
  52       11       49 1
  53       12       50 1
  54       12       51 1
  55       13       52 1
  56       13       53 1
  57       15       54 1
  58       15       55 1
  59       16       56 1
  60       19       57 1
  61       20       58 1
  62       20       59 1
  63       20       60 1
  64       21       61 1
  65       21       62 1
  66       21       63 1
  67       22       64 1
  68       22       65 1
  69       24       66 1
  70       32       67 1
  71       33       68 1
  72       34       69 1
  73       35       70 1

@<TRIPOS>MOLECULE

  70   73
SMALL
USER_CHARGES
@<TRIPOS>ATOM
   1 C1          -3.0594     0.4202    -5.1609 C.3          1    LIG   0.0000
   2 C2          -2.4090     0.5610    -3.7943 C.3          1    LIG   0.0000
   3 C3          -1.5774     1.8328    -3.7576 C.3          1    LIG   0.0000
   4 N4          -0.9484     1.9690    -2.4360 N.am         1    LIG   0.0000
   5 C5          -1.6732     2.4532    -1.3791 C.2          1    LIG   0.0000
   6 O6          -2.6703     3.0907    -1.5772 O.2          1    LIG   0.0000
   7 C7          -1.2143     2.1828     0.0446 C.3          1    LIG   0.0000
   8 N8           0.0213     1.3881     0.0183 N.pl3        1    LIG   0.0000
   9 C9           0.1399     0.0036     0.0195 C.2          1    LIG   0.0000
  10 N10         -0.9391    -0.8862     0.0421 N.pl3        1    LIG   0.0000
  11 C11         -0.6574    -2.3313     0.0354 C.3          1    LIG   0.0000
  12 C12         -1.7355    -3.1145    -0.6996 C.3          1    LIG   0.0000
  13 C13         -3.1396    -2.6965    -0.2847 C.3          1    LIG   0.0000
  14 C14         -3.2916    -1.2324    -0.6718 C.3          1    LIG   0.0000
  15 C15         -4.6984    -0.7412    -0.3714 C.3          1    LIG   0.0000
  16 N16         -5.6734    -1.5868    -1.0752 N.am         1    LIG   0.0000
  17 C17         -6.0247    -2.8049    -0.5559 C.2          1    LIG   0.0000
  18 O18         -5.8394    -3.0375     0.6067 O.2          1    LIG   0.0000
  19 C19         -6.6491    -3.8618    -1.4522 C.3          1    LIG   0.0000
  20 C20         -6.9416    -5.1101    -0.6358 C.3          1    LIG   0.0000
  21 C21         -7.9442    -3.3263    -2.0407 C.3          1    LIG   0.0000
  22 C22         -2.3059    -0.3400     0.0687 C.3          1    LIG   0.0000
  23 N23          1.3510    -0.3507    -0.0042 N.2          1    LIG   0.0000
  24 N24          2.1402     0.7395    -0.0216 N.pl3        1    LIG   0.0000
  25 C25          1.3315     1.8610    -0.0129 C.2          1    LIG   0.0000
  26 C26          1.7165     3.1273    -0.0303 C.2          1    LIG   0.0000
  27 N27          0.7264     4.1198    -0.0169 N.2          1    LIG   0.0000
  28 N28          0.9827     5.3171    -0.0355 N.2          1    LIG   0.0000
  29 C29          2.2952     5.8156    -0.0719 C.2          1    LIG   0.0000
  30 O30          2.4495     7.0282    -0.0858 O.2          1    LIG   0.0000
  31 C31          3.4064     4.8837    -0.0923 C.ar         1    LIG   0.0000
  32 C32          4.7311     5.3063    -0.1307 C.ar         1    LIG   0.0000
  33 C33          5.7819     4.3958    -0.1458 C.ar         1    LIG   0.0000
  34 C34          5.5003     3.0339    -0.1209 C.ar         1    LIG   0.0000
  35 C35          4.1724     2.6212    -0.0806 C.ar         1    LIG   0.0000
  36 C36          3.1139     3.5267    -0.0643 C.ar         1    LIG   0.0000
  37 H           -3.1261    -1.1437    -1.6540 H            1    LIG   0.0000
  38 H           -3.6066    -0.4165    -5.1850 H            1    LIG   0.0000
  39 H           -3.6493     1.2093    -5.3322 H            1    LIG   0.0000
  40 H           -2.3503     0.3751    -5.8645 H            1    LIG   0.0000
  41 H           -3.1182     0.6060    -3.0907 H            1    LIG   0.0000
  42 H           -1.8191    -0.2281    -3.6230 H            1    LIG   0.0000
  43 H           -0.8682     1.7877    -4.4613 H            1    LIG   0.0000
  44 H           -2.1673     2.6219    -3.9289 H            1    LIG   0.0000
  45 H            0.0085     1.7082    -2.3084 H            1    LIG   0.0000
  46 H           -1.0423     3.0511     0.5099 H            1    LIG   0.0000
  47 H           -1.9252     1.6776     0.5337 H            1    LIG   0.0000
  48 H           -0.6089    -2.6559     0.9800 H            1    LIG   0.0000
  49 H            0.2209    -2.4877    -0.4163 H            1    LIG   0.0000
  50 H           -1.6180    -4.0875    -0.5006 H            1    LIG   0.0000
  51 H           -1.6314    -2.9602    -1.6821 H            1    LIG   0.0000
  52 H           -3.8200    -3.2519    -0.7626 H            1    LIG   0.0000
  53 H           -3.2541    -2.8056     0.7027 H            1    LIG   0.0000
  54 H           -4.8651    -0.7893     0.6134 H            1    LIG   0.0000
  55 H           -4.7940     0.2052    -0.6799 H            1    LIG   0.0000
  56 H           -6.0802    -1.2729    -1.9331 H            1    LIG   0.0000
  57 H           -6.0154    -4.0882    -2.1919 H            1    LIG   0.0000
  58 H           -7.3524    -5.8054    -1.2255 H            1    LIG   0.0000
  59 H           -6.0896    -5.4624    -0.2486 H            1    LIG   0.0000
  60 H           -7.5753    -4.8837     0.1039 H            1    LIG   0.0000
  61 H           -8.3550    -4.0216    -2.6304 H            1    LIG   0.0000
  62 H           -8.5779    -3.0998    -1.3010 H            1    LIG   0.0000
  63 H           -7.7517    -2.5050    -2.5779 H            1    LIG   0.0000
  64 H           -2.3013     0.5626    -0.3620 H            1    LIG   0.0000
  65 H           -2.6006    -0.2537     1.0204 H            1    LIG   0.0000
  66 H            3.1401     0.7386    -0.0381 H            1    LIG   0.0000
  67 H            4.9320     6.2857    -0.1478 H            1    LIG   0.0000
  68 H            6.7287     4.7162    -0.1742 H            1    LIG   0.0000
  69 H            6.2407     2.3619    -0.1318 H            1    LIG   0.0000
  70 H            3.9709     1.6419    -0.0626 H            1    LIG   0.0000
@<TRIPOS>BOND
   1        1        2 1
   2        2        3 1
   3        3        4 1
   4        4        5 am
   5        5        6 2
   6        5        7 1
   7        7        8 1
   8        8        9 1
   9        9       10 1
  10       10       11 1
  11       11       12 1
  12       12       13 1
  13       13       14 1
  14       14       15 1
  15       15       16 1
  16       16       17 am
  17       17       18 2
  18       17       19 1
  19       19       20 1
  20       19       21 1
  21       14       22 1
  22       22       10 1
  23        9       23 2
  24       23       24 1
  25       24       25 1
  26       25        8 1
  27       25       26 2
  28       26       27 1
  29       27       28 2
  30       28       29 1
  31       29       30 2
  32       29       31 1
  33       31       32 ar
  34       32       33 ar
  35       33       34 ar
  36       34       35 ar
  37       35       36 ar
  38       36       31 ar
  39       36       26 1
  40       14       37 1
  41        1       38 1
  42        1       39 1
  43        1       40 1
  44        2       41 1
  45        2       42 1
  46        3       43 1
  47        3       44 1
  48        4       45 1
  49        7       46 1
  50        7       47 1
  51       11       48 1
  52       11       49 1
  53       12       50 1
  54       12       51 1
  55       13       52 1
  56       13       53 1
  57       15       54 1
  58       15       55 1
  59       16       56 1
  60       19       57 1
  61       20       58 1
  62       20       59 1
  63       20       60 1
  64       21       61 1
  65       21       62 1
  66       21       63 1
  67       22       64 1
  68       22       65 1
  69       24       66 1
  70       32       67 1
  71       33       68 1
  72       34       69 1
  73       35       70 1

@<TRIPOS>MOLECULE

  70   73
SMALL
USER_CHARGES
@<TRIPOS>ATOM
   1 C1          -4.1996     4.9152    -3.4943 C.3          1    LIG   0.0000
   2 C2          -3.0608     4.8374    -2.4906 C.3          1    LIG   0.0000
   3 C3          -1.8611     4.1640    -3.1368 C.3          1    LIG   0.0000
   4 N4          -1.0864     3.4525    -2.1098 N.am         1    LIG   0.0000
   5 C5          -1.6732     2.4532    -1.3791 C.2          1    LIG   0.0000
   6 O6          -2.5494     1.7912    -1.8629 O.2          1    LIG   0.0000
   7 C7          -1.2143     2.1828     0.0446 C.3          1    LIG   0.0000
   8 N8           0.0213     1.3881     0.0183 N.pl3        1    LIG   0.0000
   9 C9           0.1399     0.0036     0.0195 C.2          1    LIG   0.0000
  10 N10         -0.9391    -0.8862     0.0421 N.pl3        1    LIG   0.0000
  11 C11         -0.6574    -2.3313     0.0354 C.3          1    LIG   0.0000
  12 C12         -1.7355    -3.1145    -0.6996 C.3          1    LIG   0.0000
  13 C13         -3.1396    -2.6965    -0.2847 C.3          1    LIG   0.0000
  14 C14         -3.2916    -1.2324    -0.6718 C.3          1    LIG   0.0000
  15 C15         -4.6984    -0.7412    -0.3714 C.3          1    LIG   0.0000
  16 N16         -5.6734    -1.5868    -1.0752 N.am         1    LIG   0.0000
  17 C17         -6.0247    -2.8049    -0.5559 C.2          1    LIG   0.0000
  18 O18         -5.8394    -3.0375     0.6067 O.2          1    LIG   0.0000
  19 C19         -6.6491    -3.8618    -1.4522 C.3          1    LIG   0.0000
  20 C20         -6.9416    -5.1101    -0.6358 C.3          1    LIG   0.0000
  21 C21         -7.9442    -3.3263    -2.0407 C.3          1    LIG   0.0000
  22 C22         -2.3059    -0.3400     0.0687 C.3          1    LIG   0.0000
  23 N23          1.3510    -0.3507    -0.0042 N.2          1    LIG   0.0000
  24 N24          2.1402     0.7395    -0.0216 N.pl3        1    LIG   0.0000
  25 C25          1.3315     1.8610    -0.0129 C.2          1    LIG   0.0000
  26 C26          1.7165     3.1273    -0.0303 C.2          1    LIG   0.0000
  27 N27          0.7264     4.1198    -0.0169 N.2          1    LIG   0.0000
  28 N28          0.9827     5.3171    -0.0355 N.2          1    LIG   0.0000
  29 C29          2.2952     5.8156    -0.0719 C.2          1    LIG   0.0000
  30 O30          2.4495     7.0282    -0.0858 O.2          1    LIG   0.0000
  31 C31          3.4064     4.8837    -0.0923 C.ar         1    LIG   0.0000
  32 C32          4.7311     5.3063    -0.1307 C.ar         1    LIG   0.0000
  33 C33          5.7819     4.3958    -0.1458 C.ar         1    LIG   0.0000
  34 C34          5.5003     3.0339    -0.1209 C.ar         1    LIG   0.0000
  35 C35          4.1724     2.6212    -0.0806 C.ar         1    LIG   0.0000
  36 C36          3.1139     3.5267    -0.0643 C.ar         1    LIG   0.0000
  37 H           -3.1261    -1.1437    -1.6540 H            1    LIG   0.0000
  38 H           -4.9889     5.3582    -3.0692 H            1    LIG   0.0000
  39 H           -3.9074     5.4465    -4.2895 H            1    LIG   0.0000
  40 H           -4.4518     3.9921    -3.7845 H            1    LIG   0.0000
  41 H           -2.8086     5.7605    -2.2004 H            1    LIG   0.0000
  42 H           -3.3530     4.3061    -1.6954 H            1    LIG   0.0000
  43 H           -2.1761     3.5129    -3.8273 H            1    LIG   0.0000
  44 H           -1.2836     4.8560    -3.5700 H            1    LIG   0.0000
  45 H           -0.1312     3.6980    -1.9445 H            1    LIG   0.0000
  46 H           -1.0423     3.0511     0.5099 H            1    LIG   0.0000
  47 H           -1.9252     1.6776     0.5337 H            1    LIG   0.0000
  48 H           -0.6089    -2.6559     0.9800 H            1    LIG   0.0000
  49 H            0.2209    -2.4877    -0.4163 H            1    LIG   0.0000
  50 H           -1.6180    -4.0875    -0.5006 H            1    LIG   0.0000
  51 H           -1.6314    -2.9602    -1.6821 H            1    LIG   0.0000
  52 H           -3.8200    -3.2519    -0.7626 H            1    LIG   0.0000
  53 H           -3.2541    -2.8056     0.7027 H            1    LIG   0.0000
  54 H           -4.8651    -0.7893     0.6134 H            1    LIG   0.0000
  55 H           -4.7940     0.2052    -0.6799 H            1    LIG   0.0000
  56 H           -6.0802    -1.2729    -1.9331 H            1    LIG   0.0000
  57 H           -6.0154    -4.0882    -2.1919 H            1    LIG   0.0000
  58 H           -7.3524    -5.8054    -1.2255 H            1    LIG   0.0000
  59 H           -6.0896    -5.4624    -0.2486 H            1    LIG   0.0000
  60 H           -7.5753    -4.8837     0.1039 H            1    LIG   0.0000
  61 H           -8.3550    -4.0216    -2.6304 H            1    LIG   0.0000
  62 H           -8.5779    -3.0998    -1.3010 H            1    LIG   0.0000
  63 H           -7.7517    -2.5050    -2.5779 H            1    LIG   0.0000
  64 H           -2.3013     0.5626    -0.3620 H            1    LIG   0.0000
  65 H           -2.6006    -0.2537     1.0204 H            1    LIG   0.0000
  66 H            3.1401     0.7386    -0.0381 H            1    LIG   0.0000
  67 H            4.9320     6.2857    -0.1478 H            1    LIG   0.0000
  68 H            6.7287     4.7162    -0.1742 H            1    LIG   0.0000
  69 H            6.2407     2.3619    -0.1318 H            1    LIG   0.0000
  70 H            3.9709     1.6419    -0.0626 H            1    LIG   0.0000
@<TRIPOS>BOND
   1        1        2 1
   2        2        3 1
   3        3        4 1
   4        4        5 am
   5        5        6 2
   6        5        7 1
   7        7        8 1
   8        8        9 1
   9        9       10 1
  10       10       11 1
  11       11       12 1
  12       12       13 1
  13       13       14 1
  14       14       15 1
  15       15       16 1
  16       16       17 am
  17       17       18 2
  18       17       19 1
  19       19       20 1
  20       19       21 1
  21       14       22 1
  22       22       10 1
  23        9       23 2
  24       23       24 1
  25       24       25 1
  26       25        8 1
  27       25       26 2
  28       26       27 1
  29       27       28 2
  30       28       29 1
  31       29       30 2
  32       29       31 1
  33       31       32 ar
  34       32       33 ar
  35       33       34 ar
  36       34       35 ar
  37       35       36 ar
  38       36       31 ar
  39       36       26 1
  40       14       37 1
  41        1       38 1
  42        1       39 1
  43        1       40 1
  44        2       41 1
  45        2       42 1
  46        3       43 1
  47        3       44 1
  48        4       45 1
  49        7       46 1
  50        7       47 1
  51       11       48 1
  52       11       49 1
  53       12       50 1
  54       12       51 1
  55       13       52 1
  56       13       53 1
  57       15       54 1
  58       15       55 1
  59       16       56 1
  60       19       57 1
  61       20       58 1
  62       20       59 1
  63       20       60 1
  64       21       61 1
  65       21       62 1
  66       21       63 1
  67       22       64 1
  68       22       65 1
  69       24       66 1
  70       32       67 1
  71       33       68 1
  72       34       69 1
  73       35       70 1

@<TRIPOS>MOLECULE

  70   73
SMALL
USER_CHARGES
@<TRIPOS>ATOM
   1 C1          -0.4576     4.1305    -5.0101 C.3          1    LIG   0.0000
   2 C2          -0.5594     4.0795    -3.4944 C.3          1    LIG   0.0000
   3 C3          -2.0172     4.1965    -3.0803 C.3          1    LIG   0.0000
   4 N4          -2.1813     3.6807    -1.7135 N.am         1    LIG   0.0000
   5 C5          -1.6732     2.4532    -1.3791 C.2          1    LIG   0.0000
   6 O6          -1.5904     1.5914    -2.2100 O.2          1    LIG   0.0000
   7 C7          -1.2143     2.1828     0.0446 C.3          1    LIG   0.0000
   8 N8           0.0213     1.3881     0.0183 N.pl3        1    LIG   0.0000
   9 C9           0.1399     0.0036     0.0195 C.2          1    LIG   0.0000
  10 N10         -0.9391    -0.8862     0.0421 N.pl3        1    LIG   0.0000
  11 C11         -0.6574    -2.3313     0.0354 C.3          1    LIG   0.0000
  12 C12         -1.7355    -3.1145    -0.6996 C.3          1    LIG   0.0000
  13 C13         -3.1396    -2.6965    -0.2847 C.3          1    LIG   0.0000
  14 C14         -3.2916    -1.2324    -0.6718 C.3          1    LIG   0.0000
  15 C15         -4.6984    -0.7412    -0.3714 C.3          1    LIG   0.0000
  16 N16         -5.6734    -1.5868    -1.0752 N.am         1    LIG   0.0000
  17 C17         -6.0247    -2.8049    -0.5559 C.2          1    LIG   0.0000
  18 O18         -5.8394    -3.0375     0.6067 O.2          1    LIG   0.0000
  19 C19         -6.6491    -3.8618    -1.4522 C.3          1    LIG   0.0000
  20 C20         -8.0286    -4.2223    -0.9255 C.3          1    LIG   0.0000
  21 C21         -6.7728    -3.3181    -2.8663 C.3          1    LIG   0.0000
  22 C22         -2.3059    -0.3400     0.0687 C.3          1    LIG   0.0000
  23 N23          1.3510    -0.3507    -0.0042 N.2          1    LIG   0.0000
  24 N24          2.1402     0.7395    -0.0216 N.pl3        1    LIG   0.0000
  25 C25          1.3315     1.8610    -0.0129 C.2          1    LIG   0.0000
  26 C26          1.7165     3.1273    -0.0303 C.2          1    LIG   0.0000
  27 N27          0.7264     4.1198    -0.0169 N.2          1    LIG   0.0000
  28 N28          0.9827     5.3171    -0.0355 N.2          1    LIG   0.0000
  29 C29          2.2952     5.8156    -0.0719 C.2          1    LIG   0.0000
  30 O30          2.4495     7.0282    -0.0858 O.2          1    LIG   0.0000
  31 C31          3.4064     4.8837    -0.0923 C.ar         1    LIG   0.0000
  32 C32          4.7311     5.3063    -0.1307 C.ar         1    LIG   0.0000
  33 C33          5.7819     4.3958    -0.1458 C.ar         1    LIG   0.0000
  34 C34          5.5003     3.0339    -0.1209 C.ar         1    LIG   0.0000
  35 C35          4.1724     2.6212    -0.0806 C.ar         1    LIG   0.0000
  36 C36          3.1139     3.5267    -0.0643 C.ar         1    LIG   0.0000
  37 H           -3.1261    -1.1437    -1.6540 H            1    LIG   0.0000
  38 H            0.5014     4.0535    -5.2826 H            1    LIG   0.0000
  39 H           -0.9781     3.3734    -5.4049 H            1    LIG   0.0000
  40 H           -0.8293     4.9983    -5.3401 H            1    LIG   0.0000
  41 H           -0.1878     3.2117    -3.1644 H            1    LIG   0.0000
  42 H           -0.0389     4.8366    -3.0997 H            1    LIG   0.0000
  43 H           -2.2962     5.1564    -3.1100 H            1    LIG   0.0000
  44 H           -2.5858     3.6646    -3.7078 H            1    LIG   0.0000
  45 H           -2.6637     4.2258    -1.0279 H            1    LIG   0.0000
  46 H           -1.0423     3.0511     0.5099 H            1    LIG   0.0000
  47 H           -1.9252     1.6776     0.5337 H            1    LIG   0.0000
  48 H           -0.6089    -2.6559     0.9800 H            1    LIG   0.0000
  49 H            0.2209    -2.4877    -0.4163 H            1    LIG   0.0000
  50 H           -1.6180    -4.0875    -0.5006 H            1    LIG   0.0000
  51 H           -1.6314    -2.9602    -1.6821 H            1    LIG   0.0000
  52 H           -3.8200    -3.2519    -0.7626 H            1    LIG   0.0000
  53 H           -3.2541    -2.8056     0.7027 H            1    LIG   0.0000
  54 H           -4.8651    -0.7893     0.6134 H            1    LIG   0.0000
  55 H           -4.7940     0.2052    -0.6799 H            1    LIG   0.0000
  56 H           -6.0802    -1.2729    -1.9331 H            1    LIG   0.0000
  57 H           -6.0709    -4.6777    -1.4582 H            1    LIG   0.0000
  58 H           -8.4394    -4.9176    -1.5152 H            1    LIG   0.0000
  59 H           -7.9472    -4.5799     0.0048 H            1    LIG   0.0000
  60 H           -8.6067    -3.4064    -0.9195 H            1    LIG   0.0000
  61 H           -7.1836    -4.0135    -3.4560 H            1    LIG   0.0000
  62 H           -7.3510    -2.5022    -2.8603 H            1    LIG   0.0000
  63 H           -5.8652    -3.0810    -3.2128 H            1    LIG   0.0000
  64 H           -2.3013     0.5626    -0.3620 H            1    LIG   0.0000
  65 H           -2.6006    -0.2537     1.0204 H            1    LIG   0.0000
  66 H            3.1401     0.7386    -0.0381 H            1    LIG   0.0000
  67 H            4.9320     6.2857    -0.1478 H            1    LIG   0.0000
  68 H            6.7287     4.7162    -0.1742 H            1    LIG   0.0000
  69 H            6.2407     2.3619    -0.1318 H            1    LIG   0.0000
  70 H            3.9709     1.6419    -0.0626 H            1    LIG   0.0000
@<TRIPOS>BOND
   1        1        2 1
   2        2        3 1
   3        3        4 1
   4        4        5 am
   5        5        6 2
   6        5        7 1
   7        7        8 1
   8        8        9 1
   9        9       10 1
  10       10       11 1
  11       11       12 1
  12       12       13 1
  13       13       14 1
  14       14       15 1
  15       15       16 1
  16       16       17 am
  17       17       18 2
  18       17       19 1
  19       19       20 1
  20       19       21 1
  21       14       22 1
  22       22       10 1
  23        9       23 2
  24       23       24 1
  25       24       25 1
  26       25        8 1
  27       25       26 2
  28       26       27 1
  29       27       28 2
  30       28       29 1
  31       29       30 2
  32       29       31 1
  33       31       32 ar
  34       32       33 ar
  35       33       34 ar
  36       34       35 ar
  37       35       36 ar
  38       36       31 ar
  39       36       26 1
  40       14       37 1
  41        1       38 1
  42        1       39 1
  43        1       40 1
  44        2       41 1
  45        2       42 1
  46        3       43 1
  47        3       44 1
  48        4       45 1
  49        7       46 1
  50        7       47 1
  51       11       48 1
  52       11       49 1
  53       12       50 1
  54       12       51 1
  55       13       52 1
  56       13       53 1
  57       15       54 1
  58       15       55 1
  59       16       56 1
  60       19       57 1
  61       20       58 1
  62       20       59 1
  63       20       60 1
  64       21       61 1
  65       21       62 1
  66       21       63 1
  67       22       64 1
  68       22       65 1
  69       24       66 1
  70       32       67 1
  71       33       68 1
  72       34       69 1
  73       35       70 1

@<TRIPOS>MOLECULE

  70   73
SMALL
USER_CHARGES
@<TRIPOS>ATOM
   1 C1          -4.4270     5.0772    -3.2249 C.3          1    LIG   0.0000
   2 C2          -4.3214     3.9584    -2.2014 C.3          1    LIG   0.0000
   3 C3          -3.6347     2.7579    -2.8321 C.3          1    LIG   0.0000
   4 N4          -2.9013     2.0138    -1.7980 N.am         1    LIG   0.0000
   5 C5          -1.6732     2.4532    -1.3791 C.2          1    LIG   0.0000
   6 O6          -0.9597     3.0514    -2.1360 O.2          1    LIG   0.0000
   7 C7          -1.2143     2.1828     0.0446 C.3          1    LIG   0.0000
   8 N8           0.0213     1.3881     0.0183 N.pl3        1    LIG   0.0000
   9 C9           0.1399     0.0036     0.0195 C.2          1    LIG   0.0000
  10 N10         -0.9391    -0.8862     0.0421 N.pl3        1    LIG   0.0000
  11 C11         -0.6574    -2.3313     0.0354 C.3          1    LIG   0.0000
  12 C12         -1.7355    -3.1145    -0.6996 C.3          1    LIG   0.0000
  13 C13         -3.1396    -2.6965    -0.2847 C.3          1    LIG   0.0000
  14 C14         -3.2916    -1.2324    -0.6718 C.3          1    LIG   0.0000
  15 C15         -4.6984    -0.7412    -0.3714 C.3          1    LIG   0.0000
  16 N16         -5.6734    -1.5868    -1.0752 N.am         1    LIG   0.0000
  17 C17         -6.0247    -2.8049    -0.5559 C.2          1    LIG   0.0000
  18 O18         -5.8394    -3.0375     0.6067 O.2          1    LIG   0.0000
  19 C19         -6.6491    -3.8618    -1.4522 C.3          1    LIG   0.0000
  20 C20         -8.0286    -4.2223    -0.9255 C.3          1    LIG   0.0000
  21 C21         -6.7728    -3.3181    -2.8663 C.3          1    LIG   0.0000
  22 C22         -2.3059    -0.3400     0.0687 C.3          1    LIG   0.0000
  23 N23          1.3510    -0.3507    -0.0042 N.2          1    LIG   0.0000
  24 N24          2.1402     0.7395    -0.0216 N.pl3        1    LIG   0.0000
  25 C25          1.3315     1.8610    -0.0129 C.2          1    LIG   0.0000
  26 C26          1.7165     3.1273    -0.0303 C.2          1    LIG   0.0000
  27 N27          0.7264     4.1198    -0.0169 N.2          1    LIG   0.0000
  28 N28          0.9827     5.3171    -0.0355 N.2          1    LIG   0.0000
  29 C29          2.2952     5.8156    -0.0719 C.2          1    LIG   0.0000
  30 O30          2.4495     7.0282    -0.0858 O.2          1    LIG   0.0000
  31 C31          3.4064     4.8837    -0.0923 C.ar         1    LIG   0.0000
  32 C32          4.7311     5.3063    -0.1307 C.ar         1    LIG   0.0000
  33 C33          5.7819     4.3958    -0.1458 C.ar         1    LIG   0.0000
  34 C34          5.5003     3.0339    -0.1209 C.ar         1    LIG   0.0000
  35 C35          4.1724     2.6212    -0.0806 C.ar         1    LIG   0.0000
  36 C36          3.1139     3.5267    -0.0643 C.ar         1    LIG   0.0000
  37 H           -3.1261    -1.1437    -1.6540 H            1    LIG   0.0000
  38 H           -4.8788     5.8670    -2.8100 H            1    LIG   0.0000
  39 H           -3.5108     5.3388    -3.5285 H            1    LIG   0.0000
  40 H           -4.9608     4.7619    -4.0096 H            1    LIG   0.0000
  41 H           -3.7876     4.2736    -1.4168 H            1    LIG   0.0000
  42 H           -5.2376     3.6968    -1.8979 H            1    LIG   0.0000
  43 H           -4.3212     2.1616    -3.2481 H            1    LIG   0.0000
  44 H           -2.9952     3.0706    -3.5344 H            1    LIG   0.0000
  45 H           -3.2989     1.1869    -1.4003 H            1    LIG   0.0000
  46 H           -1.0423     3.0511     0.5099 H            1    LIG   0.0000
  47 H           -1.9252     1.6776     0.5337 H            1    LIG   0.0000
  48 H           -0.6089    -2.6559     0.9800 H            1    LIG   0.0000
  49 H            0.2209    -2.4877    -0.4163 H            1    LIG   0.0000
  50 H           -1.6180    -4.0875    -0.5006 H            1    LIG   0.0000
  51 H           -1.6314    -2.9602    -1.6821 H            1    LIG   0.0000
  52 H           -3.8200    -3.2519    -0.7626 H            1    LIG   0.0000
  53 H           -3.2541    -2.8056     0.7027 H            1    LIG   0.0000
  54 H           -4.8651    -0.7893     0.6134 H            1    LIG   0.0000
  55 H           -4.7940     0.2052    -0.6799 H            1    LIG   0.0000
  56 H           -6.0802    -1.2729    -1.9331 H            1    LIG   0.0000
  57 H           -6.0709    -4.6777    -1.4582 H            1    LIG   0.0000
  58 H           -8.4394    -4.9176    -1.5152 H            1    LIG   0.0000
  59 H           -7.9472    -4.5799     0.0048 H            1    LIG   0.0000
  60 H           -8.6067    -3.4064    -0.9195 H            1    LIG   0.0000
  61 H           -7.1836    -4.0135    -3.4560 H            1    LIG   0.0000
  62 H           -7.3510    -2.5022    -2.8603 H            1    LIG   0.0000
  63 H           -5.8652    -3.0810    -3.2128 H            1    LIG   0.0000
  64 H           -2.3013     0.5626    -0.3620 H            1    LIG   0.0000
  65 H           -2.6006    -0.2537     1.0204 H            1    LIG   0.0000
  66 H            3.1401     0.7386    -0.0381 H            1    LIG   0.0000
  67 H            4.9320     6.2857    -0.1478 H            1    LIG   0.0000
  68 H            6.7287     4.7162    -0.1742 H            1    LIG   0.0000
  69 H            6.2407     2.3619    -0.1318 H            1    LIG   0.0000
  70 H            3.9709     1.6419    -0.0626 H            1    LIG   0.0000
@<TRIPOS>BOND
   1        1        2 1
   2        2        3 1
   3        3        4 1
   4        4        5 am
   5        5        6 2
   6        5        7 1
   7        7        8 1
   8        8        9 1
   9        9       10 1
  10       10       11 1
  11       11       12 1
  12       12       13 1
  13       13       14 1
  14       14       15 1
  15       15       16 1
  16       16       17 am
  17       17       18 2
  18       17       19 1
  19       19       20 1
  20       19       21 1
  21       14       22 1
  22       22       10 1
  23        9       23 2
  24       23       24 1
  25       24       25 1
  26       25        8 1
  27       25       26 2
  28       26       27 1
  29       27       28 2
  30       28       29 1
  31       29       30 2
  32       29       31 1
  33       31       32 ar
  34       32       33 ar
  35       33       34 ar
  36       34       35 ar
  37       35       36 ar
  38       36       31 ar
  39       36       26 1
  40       14       37 1
  41        1       38 1
  42        1       39 1
  43        1       40 1
  44        2       41 1
  45        2       42 1
  46        3       43 1
  47        3       44 1
  48        4       45 1
  49        7       46 1
  50        7       47 1
  51       11       48 1
  52       11       49 1
  53       12       50 1
  54       12       51 1
  55       13       52 1
  56       13       53 1
  57       15       54 1
  58       15       55 1
  59       16       56 1
  60       19       57 1
  61       20       58 1
  62       20       59 1
  63       20       60 1
  64       21       61 1
  65       21       62 1
  66       21       63 1
  67       22       64 1
  68       22       65 1
  69       24       66 1
  70       32       67 1
  71       33       68 1
  72       34       69 1
  73       35       70 1

@<TRIPOS>MOLECULE

  70   73
SMALL
USER_CHARGES
@<TRIPOS>ATOM
   1 C1          -5.6248     1.2128    -3.7929 C.3          1    LIG   0.0000
   2 C2          -4.7330     1.5344    -2.6048 C.3          1    LIG   0.0000
   3 C3          -3.3349     1.8712    -3.0971 C.3          1    LIG   0.0000
   4 N4          -2.3500     1.4870    -2.0758 N.am         1    LIG   0.0000
   5 C5          -1.6732     2.4532    -1.3791 C.2          1    LIG   0.0000
   6 O6          -1.4426     3.5129    -1.8927 O.2          1    LIG   0.0000
   7 C7          -1.2143     2.1828     0.0446 C.3          1    LIG   0.0000
   8 N8           0.0213     1.3881     0.0183 N.pl3        1    LIG   0.0000
   9 C9           0.1399     0.0036     0.0195 C.2          1    LIG   0.0000
  10 N10         -0.9391    -0.8862     0.0421 N.pl3        1    LIG   0.0000
  11 C11         -0.6574    -2.3313     0.0354 C.3          1    LIG   0.0000
  12 C12         -1.7355    -3.1145    -0.6996 C.3          1    LIG   0.0000
  13 C13         -3.1396    -2.6965    -0.2847 C.3          1    LIG   0.0000
  14 C14         -3.2916    -1.2324    -0.6718 C.3          1    LIG   0.0000
  15 C15         -4.6984    -0.7412    -0.3714 C.3          1    LIG   0.0000
  16 N16         -5.6734    -1.5868    -1.0752 N.am         1    LIG   0.0000
  17 C17         -6.0247    -2.8049    -0.5559 C.2          1    LIG   0.0000
  18 O18         -5.8394    -3.0375     0.6067 O.2          1    LIG   0.0000
  19 C19         -6.6491    -3.8618    -1.4522 C.3          1    LIG   0.0000
  20 C20         -8.0286    -4.2223    -0.9255 C.3          1    LIG   0.0000
  21 C21         -6.7728    -3.3181    -2.8663 C.3          1    LIG   0.0000
  22 C22         -2.3059    -0.3400     0.0687 C.3          1    LIG   0.0000
  23 N23          1.3510    -0.3507    -0.0042 N.2          1    LIG   0.0000
  24 N24          2.1402     0.7395    -0.0216 N.pl3        1    LIG   0.0000
  25 C25          1.3315     1.8610    -0.0129 C.2          1    LIG   0.0000
  26 C26          1.7165     3.1273    -0.0303 C.2          1    LIG   0.0000
  27 N27          0.7264     4.1198    -0.0169 N.2          1    LIG   0.0000
  28 N28          0.9827     5.3171    -0.0355 N.2          1    LIG   0.0000
  29 C29          2.2952     5.8156    -0.0719 C.2          1    LIG   0.0000
  30 O30          2.4495     7.0282    -0.0858 O.2          1    LIG   0.0000
  31 C31          3.4064     4.8837    -0.0923 C.ar         1    LIG   0.0000
  32 C32          4.7311     5.3063    -0.1307 C.ar         1    LIG   0.0000
  33 C33          5.7819     4.3958    -0.1458 C.ar         1    LIG   0.0000
  34 C34          5.5003     3.0339    -0.1209 C.ar         1    LIG   0.0000
  35 C35          4.1724     2.6212    -0.0806 C.ar         1    LIG   0.0000
  36 C36          3.1139     3.5267    -0.0643 C.ar         1    LIG   0.0000
  37 H           -3.1261    -1.1437    -1.6540 H            1    LIG   0.0000
  38 H           -6.5445     0.9913    -3.4690 H            1    LIG   0.0000
  39 H           -5.6676     2.0051    -4.4017 H            1    LIG   0.0000
  40 H           -5.2489     0.4306    -4.2898 H            1    LIG   0.0000
  41 H           -5.1089     2.3167    -2.1079 H            1    LIG   0.0000
  42 H           -4.6902     0.7422    -1.9960 H            1    LIG   0.0000
  43 H           -3.1500     1.3713    -3.9432 H            1    LIG   0.0000
  44 H           -3.2700     2.8541    -3.2697 H            1    LIG   0.0000
  45 H           -2.1739     0.5204    -1.8895 H            1    LIG   0.0000
  46 H           -1.0423     3.0511     0.5099 H            1    LIG   0.0000
  47 H           -1.9252     1.6776     0.5337 H            1    LIG   0.0000
  48 H           -0.6089    -2.6559     0.9800 H            1    LIG   0.0000
  49 H            0.2209    -2.4877    -0.4163 H            1    LIG   0.0000
  50 H           -1.6180    -4.0875    -0.5006 H            1    LIG   0.0000
  51 H           -1.6314    -2.9602    -1.6821 H            1    LIG   0.0000
  52 H           -3.8200    -3.2519    -0.7626 H            1    LIG   0.0000
  53 H           -3.2541    -2.8056     0.7027 H            1    LIG   0.0000
  54 H           -4.8651    -0.7893     0.6134 H            1    LIG   0.0000
  55 H           -4.7940     0.2052    -0.6799 H            1    LIG   0.0000
  56 H           -6.0802    -1.2729    -1.9331 H            1    LIG   0.0000
  57 H           -6.0709    -4.6777    -1.4582 H            1    LIG   0.0000
  58 H           -8.4394    -4.9176    -1.5152 H            1    LIG   0.0000
  59 H           -7.9472    -4.5799     0.0048 H            1    LIG   0.0000
  60 H           -8.6067    -3.4064    -0.9195 H            1    LIG   0.0000
  61 H           -7.1836    -4.0135    -3.4560 H            1    LIG   0.0000
  62 H           -7.3510    -2.5022    -2.8603 H            1    LIG   0.0000
  63 H           -5.8652    -3.0810    -3.2128 H            1    LIG   0.0000
  64 H           -2.3013     0.5626    -0.3620 H            1    LIG   0.0000
  65 H           -2.6006    -0.2537     1.0204 H            1    LIG   0.0000
  66 H            3.1401     0.7386    -0.0381 H            1    LIG   0.0000
  67 H            4.9320     6.2857    -0.1478 H            1    LIG   0.0000
  68 H            6.7287     4.7162    -0.1742 H            1    LIG   0.0000
  69 H            6.2407     2.3619    -0.1318 H            1    LIG   0.0000
  70 H            3.9709     1.6419    -0.0626 H            1    LIG   0.0000
@<TRIPOS>BOND
   1        1        2 1
   2        2        3 1
   3        3        4 1
   4        4        5 am
   5        5        6 2
   6        5        7 1
   7        7        8 1
   8        8        9 1
   9        9       10 1
  10       10       11 1
  11       11       12 1
  12       12       13 1
  13       13       14 1
  14       14       15 1
  15       15       16 1
  16       16       17 am
  17       17       18 2
  18       17       19 1
  19       19       20 1
  20       19       21 1
  21       14       22 1
  22       22       10 1
  23        9       23 2
  24       23       24 1
  25       24       25 1
  26       25        8 1
  27       25       26 2
  28       26       27 1
  29       27       28 2
  30       28       29 1
  31       29       30 2
  32       29       31 1
  33       31       32 ar
  34       32       33 ar
  35       33       34 ar
  36       34       35 ar
  37       35       36 ar
  38       36       31 ar
  39       36       26 1
  40       14       37 1
  41        1       38 1
  42        1       39 1
  43        1       40 1
  44        2       41 1
  45        2       42 1
  46        3       43 1
  47        3       44 1
  48        4       45 1
  49        7       46 1
  50        7       47 1
  51       11       48 1
  52       11       49 1
  53       12       50 1
  54       12       51 1
  55       13       52 1
  56       13       53 1
  57       15       54 1
  58       15       55 1
  59       16       56 1
  60       19       57 1
  61       20       58 1
  62       20       59 1
  63       20       60 1
  64       21       61 1
  65       21       62 1
  66       21       63 1
  67       22       64 1
  68       22       65 1
  69       24       66 1
  70       32       67 1
  71       33       68 1
  72       34       69 1
  73       35       70 1

