@<TRIPOS>MOLECULE
*****
 70 73 0 0 0
SMALL
USER_CHARGES

@<TRIPOS>ATOM
      1 C1         -4.1996    4.9152   -3.4943 C.3     1  LIG1        0.0000
      2 C2         -3.0608    4.8374   -2.4906 C.3     1  LIG1        0.0000
      3 C3         -1.8611    4.1640   -3.1368 C.3     1  LIG1        0.0000
      4 N4         -1.0864    3.4525   -2.1098 N.am    1  LIG1        0.0000
      5 C5         -1.6732    2.4532   -1.3791 C.2     1  LIG1        0.0000
      6 O6         -2.5494    1.7912   -1.8629 O.2     1  LIG1        0.0000
      7 C7         -1.2143    2.1828    0.0446 C.3     1  LIG1        0.0000
      8 N8          0.0213    1.3881    0.0183 N.pl3   1  LIG1        0.0000
      9 C9          0.1399    0.0036    0.0195 C.cat   1  LIG1        0.0000
     10 N10        -0.9391   -0.8862    0.0421 N.pl3   1  LIG1        0.0000
     11 C11        -0.6574   -2.3313    0.0354 C.3     1  LIG1        0.0000
     12 C12        -1.7355   -3.1145   -0.6996 C.3     1  LIG1        0.0000
     13 C13        -3.1396   -2.6965   -0.2847 C.3     1  LIG1        0.0000
     14 C14        -3.2916   -1.2324   -0.6718 C.3     1  LIG1        0.0000
     15 C15        -4.6984   -0.7412   -0.3714 C.3     1  LIG1        0.0000
     16 N16        -5.6734   -1.5868   -1.0752 N.am    1  LIG1        0.0000
     17 C17        -6.0247   -2.8049   -0.5559 C.2     1  LIG1        0.0000
     18 O18        -5.8394   -3.0375    0.6067 O.2     1  LIG1        0.0000
     19 C19        -6.6491   -3.8618   -1.4522 C.3     1  LIG1        0.0000
     20 C20        -6.9416   -5.1101   -0.6358 C.3     1  LIG1        0.0000
     21 C21        -7.9442   -3.3263   -2.0407 C.3     1  LIG1        0.0000
     22 C22        -2.3059   -0.3400    0.0687 C.3     1  LIG1        0.0000
     23 N23         1.3510   -0.3507   -0.0042 N.2     1  LIG1        0.0000
     24 N24         2.1402    0.7395   -0.0216 N.pl3   1  LIG1        0.0000
     25 C25         1.3315    1.8610   -0.0129 C.2     1  LIG1        0.0000
     26 C26         1.7165    3.1273   -0.0303 C.2     1  LIG1        0.0000
     27 N27         0.7264    4.1198   -0.0169 N.2     1  LIG1        0.0000
     28 N28         0.9827    5.3171   -0.0355 N.am    1  LIG1        0.0000
     29 C29         2.2952    5.8156   -0.0719 C.2     1  LIG1        0.0000
     30 O30         2.4495    7.0282   -0.0858 O.2     1  LIG1        0.0000
     31 C31         3.4064    4.8837   -0.0923 C.3     1  LIG1        0.0000
     32 C32         4.7311    5.3063   -0.1307 C.3     1  LIG1        0.0000
     33 C33         5.7819    4.3958   -0.1458 C.3     1  LIG1        0.0000
     34 C34         5.5003    3.0339   -0.1209 C.3     1  LIG1        0.0000
     35 C35         4.1724    2.6212   -0.0806 C.3     1  LIG1        0.0000
     36 C36         3.1139    3.5267   -0.0643 C.3     1  LIG1        0.0000
     37 H          -3.1261   -1.1437   -1.6540 H       1  LIG1        0.0000
     38 H          -4.9889    5.3582   -3.0692 H       1  LIG1        0.0000
     39 H          -3.9074    5.4465   -4.2895 H       1  LIG1        0.0000
     40 H          -4.4518    3.9921   -3.7845 H       1  LIG1        0.0000
     41 H          -2.8086    5.7605   -2.2004 H       1  LIG1        0.0000
     42 H          -3.3530    4.3061   -1.6954 H       1  LIG1        0.0000
     43 H          -2.1761    3.5129   -3.8273 H       1  LIG1        0.0000
     44 H          -1.2836    4.8560   -3.5700 H       1  LIG1        0.0000
     45 H          -0.1312    3.6980   -1.9445 H       1  LIG1        0.0000
     46 H          -1.0423    3.0511    0.5099 H       1  LIG1        0.0000
     47 H          -1.9252    1.6776    0.5337 H       1  LIG1        0.0000
     48 H          -0.6089   -2.6559    0.9800 H       1  LIG1        0.0000
     49 H           0.2209   -2.4877   -0.4163 H       1  LIG1        0.0000
     50 H          -1.6180   -4.0875   -0.5006 H       1  LIG1        0.0000
     51 H          -1.6314   -2.9602   -1.6821 H       1  LIG1        0.0000
     52 H          -3.8200   -3.2519   -0.7626 H       1  LIG1        0.0000
     53 H          -3.2541   -2.8056    0.7027 H       1  LIG1        0.0000
     54 H          -4.8651   -0.7893    0.6134 H       1  LIG1        0.0000
     55 H          -4.7940    0.2052   -0.6799 H       1  LIG1        0.0000
     56 H          -6.0802   -1.2729   -1.9331 H       1  LIG1        0.0000
     57 H          -6.0154   -4.0882   -2.1919 H       1  LIG1        0.0000
     58 H          -7.3524   -5.8054   -1.2255 H       1  LIG1        0.0000
     59 H          -6.0896   -5.4624   -0.2486 H       1  LIG1        0.0000
     60 H          -7.5753   -4.8837    0.1039 H       1  LIG1        0.0000
     61 H          -8.3550   -4.0216   -2.6304 H       1  LIG1        0.0000
     62 H          -8.5779   -3.0998   -1.3010 H       1  LIG1        0.0000
     63 H          -7.7517   -2.5050   -2.5779 H       1  LIG1        0.0000
     64 H          -2.3013    0.5626   -0.3620 H       1  LIG1        0.0000
     65 H          -2.6006   -0.2537    1.0204 H       1  LIG1        0.0000
     66 H           3.1401    0.7386   -0.0381 H       1  LIG1        0.0000
     67 H           4.9320    6.2857   -0.1478 H       1  LIG1        0.0000
     68 H           6.7287    4.7162   -0.1742 H       1  LIG1        0.0000
     69 H           6.2407    2.3619   -0.1318 H       1  LIG1        0.0000
     70 H           3.9709    1.6419   -0.0626 H       1  LIG1        0.0000
@<TRIPOS>BOND
     1     1     2    1
     2     2     3    1
     3     3     4    1
     4     4     5   am
     5     5     6    2
     6     5     7    1
     7     7     8    1
     8     8     9    1
     9     9    10    1
    10    10    11    1
    11    11    12    1
    12    12    13    1
    13    13    14    1
    14    14    15    1
    15    15    16    1
    16    16    17   am
    17    17    18    2
    18    17    19    1
    19    19    20    1
    20    19    21    1
    21    14    22    1
    22    22    10    1
    23     9    23    2
    24    23    24    1
    25    24    25    1
    26    25     8    1
    27    25    26    2
    28    26    27    1
    29    27    28    2
    30    28    29    1
    31    29    30    2
    32    29    31    1
    33    31    32   ar
    34    32    33   ar
    35    33    34   ar
    36    34    35   ar
    37    35    36   ar
    38    36    31   ar
    39    36    26    1
    40    14    37    1
    41     1    38    1
    42     1    39    1
    43     1    40    1
    44     2    41    1
    45     2    42    1
    46     3    43    1
    47     3    44    1
    48     4    45    1
    49     7    46    1
    50     7    47    1
    51    11    48    1
    52    11    49    1
    53    12    50    1
    54    12    51    1
    55    13    52    1
    56    13    53    1
    57    15    54    1
    58    15    55    1
    59    16    56    1
    60    19    57    1
    61    20    58    1
    62    20    59    1
    63    20    60    1
    64    21    61    1
    65    21    62    1
    66    21    63    1
    67    22    64    1
    68    22    65    1
    69    24    66    1
    70    32    67    1
    71    33    68    1
    72    34    69    1
    73    35    70    1
