@<TRIPOS>MOLECULE

  31   31
SMALL
USER_CHARGES
@<TRIPOS>ATOM
   1 C1          -2.4175     4.0511    -0.4389 C.3          1    LIG   0.0000
   2 C2          -1.1023     3.4540     0.0346 C.3          1    LIG   0.0000
   3 C3          -0.8081     3.9324     1.4470 C.3          1    LIG   0.0000
   4 O4          -1.1948     2.0371     0.0243 O.3          1    LIG   0.0000
   5 C5          -0.0170     1.3779     0.0084 C.ar         1    LIG   0.0000
   6 C6           1.1749     2.0947     0.0031 C.ar         1    LIG   0.0000
   7 C7           2.3916     1.4205    -0.0123 C.ar         1    LIG   0.0000
   8 C8           2.3966     0.0297    -0.0212 C.ar         1    LIG   0.0000
   9 C9           3.7226    -0.7135    -0.0371 C.3          1    LIG   0.0000
  10 C10          4.5043    -0.3283    -1.2825 C.3          1    LIG   0.0000
  11 C11          4.5254    -0.3440     1.1995 C.3          1    LIG   0.0000
  12 C12          1.2044    -0.6870    -0.0161 C.ar         1    LIG   0.0000
  13 C13         -0.0123    -0.0130    -0.0010 C.ar         1    LIG   0.0000
  14 H           -2.3523     5.0490    -0.4317 H            1    LIG   0.0000
  15 H           -2.6111     3.7364    -1.3681 H            1    LIG   0.0000
  16 H           -3.1543     3.7608     0.1717 H            1    LIG   0.0000
  17 H           -0.3655     3.7444    -0.5760 H            1    LIG   0.0000
  18 H           -0.7429     4.9302     1.4543 H            1    LIG   0.0000
  19 H           -1.5449     3.6420     2.0576 H            1    LIG   0.0000
  20 H            0.0572     3.5396     1.7585 H            1    LIG   0.0000
  21 H            1.1572     3.0945     0.0104 H            1    LIG   0.0000
  22 H            3.2523     1.9297    -0.0170 H            1    LIG   0.0000
  23 H            3.5524    -1.6989    -0.0419 H            1    LIG   0.0000
  24 H            5.3766    -0.8172    -1.2930 H            1    LIG   0.0000
  25 H            3.9761    -0.5714    -2.0961 H            1    LIG   0.0000
  26 H            4.6745     0.6571    -1.2777 H            1    LIG   0.0000
  27 H            5.3977    -0.8329     1.1890 H            1    LIG   0.0000
  28 H            4.6956     0.6414     1.2043 H            1    LIG   0.0000
  29 H            4.0111    -0.5974     2.0188 H            1    LIG   0.0000
  30 H            1.2220    -1.6868    -0.0233 H            1    LIG   0.0000
  31 H           -0.8730    -0.5221     0.0031 H            1    LIG   0.0000
@<TRIPOS>BOND
   1        1        2 1
   2        2        3 1
   3        2        4 1
   4        4        5 1
   5        5        6 ar
   6        6        7 ar
   7        7        8 ar
   8        8        9 1
   9        9       10 1
  10        9       11 1
  11        8       12 ar
  12       12       13 ar
  13       13        5 ar
  14        1       14 1
  15        1       15 1
  16        1       16 1
  17        2       17 1
  18        3       18 1
  19        3       19 1
  20        3       20 1
  21        6       21 1
  22        7       22 1
  23        9       23 1
  24       10       24 1
  25       10       25 1
  26       10       26 1
  27       11       27 1
  28       11       28 1
  29       11       29 1
  30       12       30 1
  31       13       31 1

@<TRIPOS>MOLECULE

  31   31
SMALL
USER_CHARGES
@<TRIPOS>ATOM
   1 C1          -2.4175     4.0511    -0.4389 C.3          1    LIG   0.0000
   2 C2          -1.1023     3.4540     0.0346 C.3          1    LIG   0.0000
   3 C3          -0.8081     3.9324     1.4470 C.3          1    LIG   0.0000
   4 O4          -1.1948     2.0371     0.0243 O.3          1    LIG   0.0000
   5 C5          -0.0170     1.3779     0.0084 C.ar         1    LIG   0.0000
   6 C6           1.1749     2.0947     0.0031 C.ar         1    LIG   0.0000
   7 C7           2.3916     1.4205    -0.0123 C.ar         1    LIG   0.0000
   8 C8           2.3966     0.0297    -0.0212 C.ar         1    LIG   0.0000
   9 C9           3.7226    -0.7135    -0.0371 C.3          1    LIG   0.0000
  10 C10          4.8652     0.2889    -0.0405 C.3          1    LIG   0.0000
  11 C11          3.8248    -1.5941     1.1976 C.3          1    LIG   0.0000
  12 C12          1.2044    -0.6870    -0.0161 C.ar         1    LIG   0.0000
  13 C13         -0.0123    -0.0130    -0.0010 C.ar         1    LIG   0.0000
  14 H           -2.3523     5.0490    -0.4317 H            1    LIG   0.0000
  15 H           -2.6111     3.7364    -1.3681 H            1    LIG   0.0000
  16 H           -3.1543     3.7608     0.1717 H            1    LIG   0.0000
  17 H           -0.3655     3.7444    -0.5760 H            1    LIG   0.0000
  18 H           -0.7429     4.9302     1.4543 H            1    LIG   0.0000
  19 H           -1.5449     3.6420     2.0576 H            1    LIG   0.0000
  20 H            0.0572     3.5396     1.7585 H            1    LIG   0.0000
  21 H            1.1572     3.0945     0.0104 H            1    LIG   0.0000
  22 H            3.2523     1.9297    -0.0170 H            1    LIG   0.0000
  23 H            3.7759    -1.2825    -0.8577 H            1    LIG   0.0000
  24 H            5.7375    -0.2000    -0.0510 H            1    LIG   0.0000
  25 H            4.7980     0.8682    -0.8528 H            1    LIG   0.0000
  26 H            4.8119     0.8579     0.7801 H            1    LIG   0.0000
  27 H            4.6971    -2.0830     1.1871 H            1    LIG   0.0000
  28 H            3.7714    -1.0251     2.0182 H            1    LIG   0.0000
  29 H            3.0730    -2.2536     1.1998 H            1    LIG   0.0000
  30 H            1.2220    -1.6868    -0.0233 H            1    LIG   0.0000
  31 H           -0.8730    -0.5221     0.0031 H            1    LIG   0.0000
@<TRIPOS>BOND
   1        1        2 1
   2        2        3 1
   3        2        4 1
   4        4        5 1
   5        5        6 ar
   6        6        7 ar
   7        7        8 ar
   8        8        9 1
   9        9       10 1
  10        9       11 1
  11        8       12 ar
  12       12       13 ar
  13       13        5 ar
  14        1       14 1
  15        1       15 1
  16        1       16 1
  17        2       17 1
  18        3       18 1
  19        3       19 1
  20        3       20 1
  21        6       21 1
  22        7       22 1
  23        9       23 1
  24       10       24 1
  25       10       25 1
  26       10       26 1
  27       11       27 1
  28       11       28 1
  29       11       29 1
  30       12       30 1
  31       13       31 1

@<TRIPOS>MOLECULE

  31   31
SMALL
USER_CHARGES
@<TRIPOS>ATOM
   1 C1          -2.4175     4.0511    -0.4389 C.3          1    LIG   0.0000
   2 C2          -1.1023     3.4540     0.0346 C.3          1    LIG   0.0000
   3 C3          -0.8081     3.9324     1.4470 C.3          1    LIG   0.0000
   4 O4          -1.1948     2.0371     0.0243 O.3          1    LIG   0.0000
   5 C5          -0.0170     1.3779     0.0084 C.ar         1    LIG   0.0000
   6 C6           1.1749     2.0947     0.0031 C.ar         1    LIG   0.0000
   7 C7           2.3916     1.4205    -0.0123 C.ar         1    LIG   0.0000
   8 C8           2.3966     0.0297    -0.0212 C.ar         1    LIG   0.0000
   9 C9           3.7226    -0.7135    -0.0371 C.3          1    LIG   0.0000
  10 C10          3.5517    -2.0393    -0.7606 C.3          1    LIG   0.0000
  11 C11          4.7652     0.1260    -0.7573 C.3          1    LIG   0.0000
  12 C12          1.2044    -0.6870    -0.0161 C.ar         1    LIG   0.0000
  13 C13         -0.0123    -0.0130    -0.0010 C.ar         1    LIG   0.0000
  14 H           -2.3523     5.0490    -0.4317 H            1    LIG   0.0000
  15 H           -2.6111     3.7364    -1.3681 H            1    LIG   0.0000
  16 H           -3.1543     3.7608     0.1717 H            1    LIG   0.0000
  17 H           -0.3655     3.7444    -0.5760 H            1    LIG   0.0000
  18 H           -0.7429     4.9302     1.4543 H            1    LIG   0.0000
  19 H           -1.5449     3.6420     2.0576 H            1    LIG   0.0000
  20 H            0.0572     3.5396     1.7585 H            1    LIG   0.0000
  21 H            1.1572     3.0945     0.0104 H            1    LIG   0.0000
  22 H            3.2523     1.9297    -0.0170 H            1    LIG   0.0000
  23 H            4.0214    -0.8824     0.9021 H            1    LIG   0.0000
  24 H            4.4239    -2.5282    -0.7711 H            1    LIG   0.0000
  25 H            2.8657    -2.5916    -0.2869 H            1    LIG   0.0000
  26 H            3.2529    -1.8704    -1.6999 H            1    LIG   0.0000
  27 H            5.6375    -0.3629    -0.7678 H            1    LIG   0.0000
  28 H            4.4664     0.2949    -1.6965 H            1    LIG   0.0000
  29 H            4.8777     0.9982    -0.2813 H            1    LIG   0.0000
  30 H            1.2220    -1.6868    -0.0233 H            1    LIG   0.0000
  31 H           -0.8730    -0.5221     0.0031 H            1    LIG   0.0000
@<TRIPOS>BOND
   1        1        2 1
   2        2        3 1
   3        2        4 1
   4        4        5 1
   5        5        6 ar
   6        6        7 ar
   7        7        8 ar
   8        8        9 1
   9        9       10 1
  10        9       11 1
  11        8       12 ar
  12       12       13 ar
  13       13        5 ar
  14        1       14 1
  15        1       15 1
  16        1       16 1
  17        2       17 1
  18        3       18 1
  19        3       19 1
  20        3       20 1
  21        6       21 1
  22        7       22 1
  23        9       23 1
  24       10       24 1
  25       10       25 1
  26       10       26 1
  27       11       27 1
  28       11       28 1
  29       11       29 1
  30       12       30 1
  31       13       31 1

@<TRIPOS>MOLECULE

  31   31
SMALL
USER_CHARGES
@<TRIPOS>ATOM
   1 C1          -0.8339     3.9545    -1.3754 C.3          1    LIG   0.0000
   2 C2          -1.1023     3.4540     0.0346 C.3          1    LIG   0.0000
   3 C3          -2.4085     4.0434     0.5413 C.3          1    LIG   0.0000
   4 O4          -1.1948     2.0371     0.0243 O.3          1    LIG   0.0000
   5 C5          -0.0170     1.3779     0.0084 C.ar         1    LIG   0.0000
   6 C6           1.1749     2.0947     0.0031 C.ar         1    LIG   0.0000
   7 C7           2.3916     1.4205    -0.0123 C.ar         1    LIG   0.0000
   8 C8           2.3966     0.0297    -0.0212 C.ar         1    LIG   0.0000
   9 C9           3.7226    -0.7135    -0.0371 C.3          1    LIG   0.0000
  10 C10          4.5043    -0.3283    -1.2825 C.3          1    LIG   0.0000
  11 C11          4.5254    -0.3440     1.1995 C.3          1    LIG   0.0000
  12 C12          1.2044    -0.6870    -0.0161 C.ar         1    LIG   0.0000
  13 C13         -0.0123    -0.0130    -0.0010 C.ar         1    LIG   0.0000
  14 H           -0.7687     4.9523    -1.3681 H            1    LIG   0.0000
  15 H            0.0255     3.5667    -1.7087 H            1    LIG   0.0000
  16 H           -1.5818     3.6736    -1.9768 H            1    LIG   0.0000
  17 H           -0.3544     3.7349     0.6360 H            1    LIG   0.0000
  18 H           -2.3434     5.0413     0.5485 H            1    LIG   0.0000
  19 H           -3.1565     3.7626    -0.0601 H            1    LIG   0.0000
  20 H           -2.5851     3.7142     1.4689 H            1    LIG   0.0000
  21 H            1.1572     3.0945     0.0104 H            1    LIG   0.0000
  22 H            3.2523     1.9297    -0.0170 H            1    LIG   0.0000
  23 H            3.5524    -1.6989    -0.0419 H            1    LIG   0.0000
  24 H            5.3766    -0.8172    -1.2930 H            1    LIG   0.0000
  25 H            3.9761    -0.5714    -2.0961 H            1    LIG   0.0000
  26 H            4.6745     0.6571    -1.2777 H            1    LIG   0.0000
  27 H            5.3977    -0.8329     1.1890 H            1    LIG   0.0000
  28 H            4.6956     0.6414     1.2043 H            1    LIG   0.0000
  29 H            4.0111    -0.5974     2.0188 H            1    LIG   0.0000
  30 H            1.2220    -1.6868    -0.0233 H            1    LIG   0.0000
  31 H           -0.8730    -0.5221     0.0031 H            1    LIG   0.0000
@<TRIPOS>BOND
   1        1        2 1
   2        2        3 1
   3        2        4 1
   4        4        5 1
   5        5        6 ar
   6        6        7 ar
   7        7        8 ar
   8        8        9 1
   9        9       10 1
  10        9       11 1
  11        8       12 ar
  12       12       13 ar
  13       13        5 ar
  14        1       14 1
  15        1       15 1
  16        1       16 1
  17        2       17 1
  18        3       18 1
  19        3       19 1
  20        3       20 1
  21        6       21 1
  22        7       22 1
  23        9       23 1
  24       10       24 1
  25       10       25 1
  26       10       26 1
  27       11       27 1
  28       11       28 1
  29       11       29 1
  30       12       30 1
  31       13       31 1

@<TRIPOS>MOLECULE

  31   31
SMALL
USER_CHARGES
@<TRIPOS>ATOM
   1 C1          -0.8339     3.9545    -1.3754 C.3          1    LIG   0.0000
   2 C2          -1.1023     3.4540     0.0346 C.3          1    LIG   0.0000
   3 C3          -2.4085     4.0434     0.5413 C.3          1    LIG   0.0000
   4 O4          -1.1948     2.0371     0.0243 O.3          1    LIG   0.0000
   5 C5          -0.0170     1.3779     0.0084 C.ar         1    LIG   0.0000
   6 C6           1.1749     2.0947     0.0031 C.ar         1    LIG   0.0000
   7 C7           2.3916     1.4205    -0.0123 C.ar         1    LIG   0.0000
   8 C8           2.3966     0.0297    -0.0212 C.ar         1    LIG   0.0000
   9 C9           3.7226    -0.7135    -0.0371 C.3          1    LIG   0.0000
  10 C10          4.8652     0.2889    -0.0405 C.3          1    LIG   0.0000
  11 C11          3.8248    -1.5941     1.1976 C.3          1    LIG   0.0000
  12 C12          1.2044    -0.6870    -0.0161 C.ar         1    LIG   0.0000
  13 C13         -0.0123    -0.0130    -0.0010 C.ar         1    LIG   0.0000
  14 H           -0.7687     4.9523    -1.3681 H            1    LIG   0.0000
  15 H            0.0255     3.5667    -1.7087 H            1    LIG   0.0000
  16 H           -1.5818     3.6736    -1.9768 H            1    LIG   0.0000
  17 H           -0.3544     3.7349     0.6360 H            1    LIG   0.0000
  18 H           -2.3434     5.0413     0.5485 H            1    LIG   0.0000
  19 H           -3.1565     3.7626    -0.0601 H            1    LIG   0.0000
  20 H           -2.5851     3.7142     1.4689 H            1    LIG   0.0000
  21 H            1.1572     3.0945     0.0104 H            1    LIG   0.0000
  22 H            3.2523     1.9297    -0.0170 H            1    LIG   0.0000
  23 H            3.7759    -1.2825    -0.8577 H            1    LIG   0.0000
  24 H            5.7375    -0.2000    -0.0510 H            1    LIG   0.0000
  25 H            4.7980     0.8682    -0.8528 H            1    LIG   0.0000
  26 H            4.8119     0.8579     0.7801 H            1    LIG   0.0000
  27 H            4.6971    -2.0830     1.1871 H            1    LIG   0.0000
  28 H            3.7714    -1.0251     2.0182 H            1    LIG   0.0000
  29 H            3.0730    -2.2536     1.1998 H            1    LIG   0.0000
  30 H            1.2220    -1.6868    -0.0233 H            1    LIG   0.0000
  31 H           -0.8730    -0.5221     0.0031 H            1    LIG   0.0000
@<TRIPOS>BOND
   1        1        2 1
   2        2        3 1
   3        2        4 1
   4        4        5 1
   5        5        6 ar
   6        6        7 ar
   7        7        8 ar
   8        8        9 1
   9        9       10 1
  10        9       11 1
  11        8       12 ar
  12       12       13 ar
  13       13        5 ar
  14        1       14 1
  15        1       15 1
  16        1       16 1
  17        2       17 1
  18        3       18 1
  19        3       19 1
  20        3       20 1
  21        6       21 1
  22        7       22 1
  23        9       23 1
  24       10       24 1
  25       10       25 1
  26       10       26 1
  27       11       27 1
  28       11       28 1
  29       11       29 1
  30       12       30 1
  31       13       31 1

@<TRIPOS>MOLECULE

  31   31
SMALL
USER_CHARGES
@<TRIPOS>ATOM
   1 C1          -0.8339     3.9545    -1.3754 C.3          1    LIG   0.0000
   2 C2          -1.1023     3.4540     0.0346 C.3          1    LIG   0.0000
   3 C3          -2.4085     4.0434     0.5413 C.3          1    LIG   0.0000
   4 O4          -1.1948     2.0371     0.0243 O.3          1    LIG   0.0000
   5 C5          -0.0170     1.3779     0.0084 C.ar         1    LIG   0.0000
   6 C6           1.1749     2.0947     0.0031 C.ar         1    LIG   0.0000
   7 C7           2.3916     1.4205    -0.0123 C.ar         1    LIG   0.0000
   8 C8           2.3966     0.0297    -0.0212 C.ar         1    LIG   0.0000
   9 C9           3.7226    -0.7135    -0.0371 C.3          1    LIG   0.0000
  10 C10          3.5517    -2.0393    -0.7606 C.3          1    LIG   0.0000
  11 C11          4.7652     0.1260    -0.7573 C.3          1    LIG   0.0000
  12 C12          1.2044    -0.6870    -0.0161 C.ar         1    LIG   0.0000
  13 C13         -0.0123    -0.0130    -0.0010 C.ar         1    LIG   0.0000
  14 H           -0.7687     4.9523    -1.3681 H            1    LIG   0.0000
  15 H            0.0255     3.5667    -1.7087 H            1    LIG   0.0000
  16 H           -1.5818     3.6736    -1.9768 H            1    LIG   0.0000
  17 H           -0.3544     3.7349     0.6360 H            1    LIG   0.0000
  18 H           -2.3434     5.0413     0.5485 H            1    LIG   0.0000
  19 H           -3.1565     3.7626    -0.0601 H            1    LIG   0.0000
  20 H           -2.5851     3.7142     1.4689 H            1    LIG   0.0000
  21 H            1.1572     3.0945     0.0104 H            1    LIG   0.0000
  22 H            3.2523     1.9297    -0.0170 H            1    LIG   0.0000
  23 H            4.0214    -0.8824     0.9021 H            1    LIG   0.0000
  24 H            4.4239    -2.5282    -0.7711 H            1    LIG   0.0000
  25 H            2.8657    -2.5916    -0.2869 H            1    LIG   0.0000
  26 H            3.2529    -1.8704    -1.6999 H            1    LIG   0.0000
  27 H            5.6375    -0.3629    -0.7678 H            1    LIG   0.0000
  28 H            4.4664     0.2949    -1.6965 H            1    LIG   0.0000
  29 H            4.8777     0.9982    -0.2813 H            1    LIG   0.0000
  30 H            1.2220    -1.6868    -0.0233 H            1    LIG   0.0000
  31 H           -0.8730    -0.5221     0.0031 H            1    LIG   0.0000
@<TRIPOS>BOND
   1        1        2 1
   2        2        3 1
   3        2        4 1
   4        4        5 1
   5        5        6 ar
   6        6        7 ar
   7        7        8 ar
   8        8        9 1
   9        9       10 1
  10        9       11 1
  11        8       12 ar
  12       12       13 ar
  13       13        5 ar
  14        1       14 1
  15        1       15 1
  16        1       16 1
  17        2       17 1
  18        3       18 1
  19        3       19 1
  20        3       20 1
  21        6       21 1
  22        7       22 1
  23        9       23 1
  24       10       24 1
  25       10       25 1
  26       10       26 1
  27       11       27 1
  28       11       28 1
  29       11       29 1
  30       12       30 1
  31       13       31 1

@<TRIPOS>MOLECULE

  31   31
SMALL
USER_CHARGES
@<TRIPOS>ATOM
   1 C1          -2.1973     3.3115    -1.7467 C.3          1    LIG   0.0000
   2 C2          -1.1920     3.3092    -0.6066 C.3          1    LIG   0.0000
   3 C3          -1.5715     4.3777     0.4057 C.3          1    LIG   0.0000
   4 O4          -1.1948     2.0371     0.0243 O.3          1    LIG   0.0000
   5 C5          -0.0170     1.3779     0.0084 C.ar         1    LIG   0.0000
   6 C6           1.1749     2.0947     0.0031 C.ar         1    LIG   0.0000
   7 C7           2.3916     1.4205    -0.0123 C.ar         1    LIG   0.0000
   8 C8           2.3966     0.0297    -0.0212 C.ar         1    LIG   0.0000
   9 C9           3.7226    -0.7135    -0.0371 C.3          1    LIG   0.0000
  10 C10          4.7774     0.1169     0.6757 C.3          1    LIG   0.0000
  11 C11          3.5638    -2.0483     0.6724 C.3          1    LIG   0.0000
  12 C12          1.2044    -0.6870    -0.0161 C.ar         1    LIG   0.0000
  13 C13         -0.0123    -0.0130    -0.0010 C.ar         1    LIG   0.0000
  14 H           -2.1953     4.2074    -2.1910 H            1    LIG   0.0000
  15 H           -1.9477     2.6086    -2.4127 H            1    LIG   0.0000
  16 H           -3.1103     3.1201    -1.3864 H            1    LIG   0.0000
  17 H           -0.2790     3.5006    -0.9669 H            1    LIG   0.0000
  18 H           -1.5695     5.2736    -0.0386 H            1    LIG   0.0000
  19 H           -2.4845     4.1863     0.7659 H            1    LIG   0.0000
  20 H           -0.9101     4.3762     1.1557 H            1    LIG   0.0000
  21 H            1.1572     3.0945     0.0104 H            1    LIG   0.0000
  22 H            3.2523     1.9297    -0.0170 H            1    LIG   0.0000
  23 H            4.0053    -0.8705    -0.9834 H            1    LIG   0.0000
  24 H            5.6497    -0.3720     0.6652 H            1    LIG   0.0000
  25 H            4.8818     0.9951     0.2089 H            1    LIG   0.0000
  26 H            4.4947     0.2739     1.6220 H            1    LIG   0.0000
  27 H            4.4361    -2.5372     0.6618 H            1    LIG   0.0000
  28 H            3.2811    -1.8913     1.6186 H            1    LIG   0.0000
  29 H            2.8699    -2.5947     0.2034 H            1    LIG   0.0000
  30 H            1.2220    -1.6868    -0.0233 H            1    LIG   0.0000
  31 H           -0.8730    -0.5221     0.0031 H            1    LIG   0.0000
@<TRIPOS>BOND
   1        1        2 1
   2        2        3 1
   3        2        4 1
   4        4        5 1
   5        5        6 ar
   6        6        7 ar
   7        7        8 ar
   8        8        9 1
   9        9       10 1
  10        9       11 1
  11        8       12 ar
  12       12       13 ar
  13       13        5 ar
  14        1       14 1
  15        1       15 1
  16        1       16 1
  17        2       17 1
  18        3       18 1
  19        3       19 1
  20        3       20 1
  21        6       21 1
  22        7       22 1
  23        9       23 1
  24       10       24 1
  25       10       25 1
  26       10       26 1
  27       11       27 1
  28       11       28 1
  29       11       29 1
  30       12       30 1
  31       13       31 1

@<TRIPOS>MOLECULE

  31   31
SMALL
USER_CHARGES
@<TRIPOS>ATOM
   1 C1          -3.5409     2.0203     0.5359 C.3          1    LIG   0.0000
   2 C2          -2.3542     1.2172     0.0285 C.3          1    LIG   0.0000
   3 C3          -2.6372     0.7325    -1.3841 C.3          1    LIG   0.0000
   4 O4          -1.1948     2.0371     0.0243 O.3          1    LIG   0.0000
   5 C5          -0.0170     1.3779     0.0084 C.ar         1    LIG   0.0000
   6 C6           1.1749     2.0947     0.0031 C.ar         1    LIG   0.0000
   7 C7           2.3916     1.4205    -0.0123 C.ar         1    LIG   0.0000
   8 C8           2.3966     0.0297    -0.0212 C.ar         1    LIG   0.0000
   9 C9           3.7226    -0.7135    -0.0371 C.3          1    LIG   0.0000
  10 C10          4.5043    -0.3283    -1.2825 C.3          1    LIG   0.0000
  11 C11          4.5254    -0.3440     1.1995 C.3          1    LIG   0.0000
  12 C12          1.2044    -0.6870    -0.0161 C.ar         1    LIG   0.0000
  13 C13         -0.0123    -0.0130    -0.0010 C.ar         1    LIG   0.0000
  14 H           -4.3573     1.4429     0.5388 H            1    LIG   0.0000
  15 H           -3.3547     2.3392     1.4652 H            1    LIG   0.0000
  16 H           -3.6912     2.8072    -0.0627 H            1    LIG   0.0000
  17 H           -2.2039     0.4303     0.6271 H            1    LIG   0.0000
  18 H           -3.4536     0.1552    -1.3811 H            1    LIG   0.0000
  19 H           -2.7875     1.5194    -1.9826 H            1    LIG   0.0000
  20 H           -1.8565     0.2042    -1.7178 H            1    LIG   0.0000
  21 H            1.1572     3.0945     0.0104 H            1    LIG   0.0000
  22 H            3.2523     1.9297    -0.0170 H            1    LIG   0.0000
  23 H            3.5524    -1.6989    -0.0419 H            1    LIG   0.0000
  24 H            5.3766    -0.8172    -1.2930 H            1    LIG   0.0000
  25 H            3.9761    -0.5714    -2.0961 H            1    LIG   0.0000
  26 H            4.6745     0.6571    -1.2777 H            1    LIG   0.0000
  27 H            5.3977    -0.8329     1.1890 H            1    LIG   0.0000
  28 H            4.6956     0.6414     1.2043 H            1    LIG   0.0000
  29 H            4.0111    -0.5974     2.0188 H            1    LIG   0.0000
  30 H            1.2220    -1.6868    -0.0233 H            1    LIG   0.0000
  31 H           -0.8730    -0.5221     0.0031 H            1    LIG   0.0000
@<TRIPOS>BOND
   1        1        2 1
   2        2        3 1
   3        2        4 1
   4        4        5 1
   5        5        6 ar
   6        6        7 ar
   7        7        8 ar
   8        8        9 1
   9        9       10 1
  10        9       11 1
  11        8       12 ar
  12       12       13 ar
  13       13        5 ar
  14        1       14 1
  15        1       15 1
  16        1       16 1
  17        2       17 1
  18        3       18 1
  19        3       19 1
  20        3       20 1
  21        6       21 1
  22        7       22 1
  23        9       23 1
  24       10       24 1
  25       10       25 1
  26       10       26 1
  27       11       27 1
  28       11       28 1
  29       11       29 1
  30       12       30 1
  31       13       31 1

@<TRIPOS>MOLECULE

  31   31
SMALL
USER_CHARGES
@<TRIPOS>ATOM
   1 C1          -3.5409     2.0203     0.5359 C.3          1    LIG   0.0000
   2 C2          -2.3542     1.2172     0.0285 C.3          1    LIG   0.0000
   3 C3          -2.6372     0.7325    -1.3841 C.3          1    LIG   0.0000
   4 O4          -1.1948     2.0371     0.0243 O.3          1    LIG   0.0000
   5 C5          -0.0170     1.3779     0.0084 C.ar         1    LIG   0.0000
   6 C6           1.1749     2.0947     0.0031 C.ar         1    LIG   0.0000
   7 C7           2.3916     1.4205    -0.0123 C.ar         1    LIG   0.0000
   8 C8           2.3966     0.0297    -0.0212 C.ar         1    LIG   0.0000
   9 C9           3.7226    -0.7135    -0.0371 C.3          1    LIG   0.0000
  10 C10          4.8652     0.2889    -0.0405 C.3          1    LIG   0.0000
  11 C11          3.8248    -1.5941     1.1976 C.3          1    LIG   0.0000
  12 C12          1.2044    -0.6870    -0.0161 C.ar         1    LIG   0.0000
  13 C13         -0.0123    -0.0130    -0.0010 C.ar         1    LIG   0.0000
  14 H           -4.3573     1.4429     0.5388 H            1    LIG   0.0000
  15 H           -3.3547     2.3392     1.4652 H            1    LIG   0.0000
  16 H           -3.6912     2.8072    -0.0627 H            1    LIG   0.0000
  17 H           -2.2039     0.4303     0.6271 H            1    LIG   0.0000
  18 H           -3.4536     0.1552    -1.3811 H            1    LIG   0.0000
  19 H           -2.7875     1.5194    -1.9826 H            1    LIG   0.0000
  20 H           -1.8565     0.2042    -1.7178 H            1    LIG   0.0000
  21 H            1.1572     3.0945     0.0104 H            1    LIG   0.0000
  22 H            3.2523     1.9297    -0.0170 H            1    LIG   0.0000
  23 H            3.7759    -1.2825    -0.8577 H            1    LIG   0.0000
  24 H            5.7375    -0.2000    -0.0510 H            1    LIG   0.0000
  25 H            4.7980     0.8682    -0.8528 H            1    LIG   0.0000
  26 H            4.8119     0.8579     0.7801 H            1    LIG   0.0000
  27 H            4.6971    -2.0830     1.1871 H            1    LIG   0.0000
  28 H            3.7714    -1.0251     2.0182 H            1    LIG   0.0000
  29 H            3.0730    -2.2536     1.1998 H            1    LIG   0.0000
  30 H            1.2220    -1.6868    -0.0233 H            1    LIG   0.0000
  31 H           -0.8730    -0.5221     0.0031 H            1    LIG   0.0000
@<TRIPOS>BOND
   1        1        2 1
   2        2        3 1
   3        2        4 1
   4        4        5 1
   5        5        6 ar
   6        6        7 ar
   7        7        8 ar
   8        8        9 1
   9        9       10 1
  10        9       11 1
  11        8       12 ar
  12       12       13 ar
  13       13        5 ar
  14        1       14 1
  15        1       15 1
  16        1       16 1
  17        2       17 1
  18        3       18 1
  19        3       19 1
  20        3       20 1
  21        6       21 1
  22        7       22 1
  23        9       23 1
  24       10       24 1
  25       10       25 1
  26       10       26 1
  27       11       27 1
  28       11       28 1
  29       11       29 1
  30       12       30 1
  31       13       31 1

@<TRIPOS>MOLECULE

  31   31
SMALL
USER_CHARGES
@<TRIPOS>ATOM
   1 C1          -3.5409     2.0203     0.5359 C.3          1    LIG   0.0000
   2 C2          -2.3542     1.2172     0.0285 C.3          1    LIG   0.0000
   3 C3          -2.6372     0.7325    -1.3841 C.3          1    LIG   0.0000
   4 O4          -1.1948     2.0371     0.0243 O.3          1    LIG   0.0000
   5 C5          -0.0170     1.3779     0.0084 C.ar         1    LIG   0.0000
   6 C6           1.1749     2.0947     0.0031 C.ar         1    LIG   0.0000
   7 C7           2.3916     1.4205    -0.0123 C.ar         1    LIG   0.0000
   8 C8           2.3966     0.0297    -0.0212 C.ar         1    LIG   0.0000
   9 C9           3.7226    -0.7135    -0.0371 C.3          1    LIG   0.0000
  10 C10          3.5517    -2.0393    -0.7606 C.3          1    LIG   0.0000
  11 C11          4.7652     0.1260    -0.7573 C.3          1    LIG   0.0000
  12 C12          1.2044    -0.6870    -0.0161 C.ar         1    LIG   0.0000
  13 C13         -0.0123    -0.0130    -0.0010 C.ar         1    LIG   0.0000
  14 H           -4.3573     1.4429     0.5388 H            1    LIG   0.0000
  15 H           -3.3547     2.3392     1.4652 H            1    LIG   0.0000
  16 H           -3.6912     2.8072    -0.0627 H            1    LIG   0.0000
  17 H           -2.2039     0.4303     0.6271 H            1    LIG   0.0000
  18 H           -3.4536     0.1552    -1.3811 H            1    LIG   0.0000
  19 H           -2.7875     1.5194    -1.9826 H            1    LIG   0.0000
  20 H           -1.8565     0.2042    -1.7178 H            1    LIG   0.0000
  21 H            1.1572     3.0945     0.0104 H            1    LIG   0.0000
  22 H            3.2523     1.9297    -0.0170 H            1    LIG   0.0000
  23 H            4.0214    -0.8824     0.9021 H            1    LIG   0.0000
  24 H            4.4239    -2.5282    -0.7711 H            1    LIG   0.0000
  25 H            2.8657    -2.5916    -0.2869 H            1    LIG   0.0000
  26 H            3.2529    -1.8704    -1.6999 H            1    LIG   0.0000
  27 H            5.6375    -0.3629    -0.7678 H            1    LIG   0.0000
  28 H            4.4664     0.2949    -1.6965 H            1    LIG   0.0000
  29 H            4.8777     0.9982    -0.2813 H            1    LIG   0.0000
  30 H            1.2220    -1.6868    -0.0233 H            1    LIG   0.0000
  31 H           -0.8730    -0.5221     0.0031 H            1    LIG   0.0000
@<TRIPOS>BOND
   1        1        2 1
   2        2        3 1
   3        2        4 1
   4        4        5 1
   5        5        6 ar
   6        6        7 ar
   7        7        8 ar
   8        8        9 1
   9        9       10 1
  10        9       11 1
  11        8       12 ar
  12       12       13 ar
  13       13        5 ar
  14        1       14 1
  15        1       15 1
  16        1       16 1
  17        2       17 1
  18        3       18 1
  19        3       19 1
  20        3       20 1
  21        6       21 1
  22        7       22 1
  23        9       23 1
  24       10       24 1
  25       10       25 1
  26       10       26 1
  27       11       27 1
  28       11       28 1
  29       11       29 1
  30       12       30 1
  31       13       31 1

@<TRIPOS>MOLECULE

  31   31
SMALL
USER_CHARGES
@<TRIPOS>ATOM
   1 C1          -2.6113     0.7105     1.4383 C.3          1    LIG   0.0000
   2 C2          -2.3542     1.2172     0.0285 C.3          1    LIG   0.0000
   3 C3          -3.5498     2.0280    -0.4443 C.3          1    LIG   0.0000
   4 O4          -1.1948     2.0371     0.0243 O.3          1    LIG   0.0000
   5 C5          -0.0170     1.3779     0.0084 C.ar         1    LIG   0.0000
   6 C6           1.1749     2.0947     0.0031 C.ar         1    LIG   0.0000
   7 C7           2.3916     1.4205    -0.0123 C.ar         1    LIG   0.0000
   8 C8           2.3966     0.0297    -0.0212 C.ar         1    LIG   0.0000
   9 C9           3.7226    -0.7135    -0.0371 C.3          1    LIG   0.0000
  10 C10          4.5043    -0.3283    -1.2825 C.3          1    LIG   0.0000
  11 C11          4.5254    -0.3440     1.1995 C.3          1    LIG   0.0000
  12 C12          1.2044    -0.6870    -0.0161 C.ar         1    LIG   0.0000
  13 C13         -0.0123    -0.0130    -0.0010 C.ar         1    LIG   0.0000
  14 H           -3.4278     0.1331     1.4413 H            1    LIG   0.0000
  15 H           -1.8248     0.1771     1.7494 H            1    LIG   0.0000
  16 H           -2.7506     1.4878     2.0518 H            1    LIG   0.0000
  17 H           -2.2150     0.4398    -0.5849 H            1    LIG   0.0000
  18 H           -4.3663     1.4506    -0.4414 H            1    LIG   0.0000
  19 H           -3.6891     2.8053     0.1691 H            1    LIG   0.0000
  20 H           -3.3807     2.3614    -1.3718 H            1    LIG   0.0000
  21 H            1.1572     3.0945     0.0104 H            1    LIG   0.0000
  22 H            3.2523     1.9297    -0.0170 H            1    LIG   0.0000
  23 H            3.5524    -1.6989    -0.0419 H            1    LIG   0.0000
  24 H            5.3766    -0.8172    -1.2930 H            1    LIG   0.0000
  25 H            3.9761    -0.5714    -2.0961 H            1    LIG   0.0000
  26 H            4.6745     0.6571    -1.2777 H            1    LIG   0.0000
  27 H            5.3977    -0.8329     1.1890 H            1    LIG   0.0000
  28 H            4.6956     0.6414     1.2043 H            1    LIG   0.0000
  29 H            4.0111    -0.5974     2.0188 H            1    LIG   0.0000
  30 H            1.2220    -1.6868    -0.0233 H            1    LIG   0.0000
  31 H           -0.8730    -0.5221     0.0031 H            1    LIG   0.0000
@<TRIPOS>BOND
   1        1        2 1
   2        2        3 1
   3        2        4 1
   4        4        5 1
   5        5        6 ar
   6        6        7 ar
   7        7        8 ar
   8        8        9 1
   9        9       10 1
  10        9       11 1
  11        8       12 ar
  12       12       13 ar
  13       13        5 ar
  14        1       14 1
  15        1       15 1
  16        1       16 1
  17        2       17 1
  18        3       18 1
  19        3       19 1
  20        3       20 1
  21        6       21 1
  22        7       22 1
  23        9       23 1
  24       10       24 1
  25       10       25 1
  26       10       26 1
  27       11       27 1
  28       11       28 1
  29       11       29 1
  30       12       30 1
  31       13       31 1

@<TRIPOS>MOLECULE

  31   31
SMALL
USER_CHARGES
@<TRIPOS>ATOM
   1 C1          -2.6113     0.7105     1.4383 C.3          1    LIG   0.0000
   2 C2          -2.3542     1.2172     0.0285 C.3          1    LIG   0.0000
   3 C3          -3.5498     2.0280    -0.4443 C.3          1    LIG   0.0000
   4 O4          -1.1948     2.0371     0.0243 O.3          1    LIG   0.0000
   5 C5          -0.0170     1.3779     0.0084 C.ar         1    LIG   0.0000
   6 C6           1.1749     2.0947     0.0031 C.ar         1    LIG   0.0000
   7 C7           2.3916     1.4205    -0.0123 C.ar         1    LIG   0.0000
   8 C8           2.3966     0.0297    -0.0212 C.ar         1    LIG   0.0000
   9 C9           3.7226    -0.7135    -0.0371 C.3          1    LIG   0.0000
  10 C10          4.8652     0.2889    -0.0405 C.3          1    LIG   0.0000
  11 C11          3.8248    -1.5941     1.1976 C.3          1    LIG   0.0000
  12 C12          1.2044    -0.6870    -0.0161 C.ar         1    LIG   0.0000
  13 C13         -0.0123    -0.0130    -0.0010 C.ar         1    LIG   0.0000
  14 H           -3.4278     0.1331     1.4413 H            1    LIG   0.0000
  15 H           -1.8248     0.1771     1.7494 H            1    LIG   0.0000
  16 H           -2.7506     1.4878     2.0518 H            1    LIG   0.0000
  17 H           -2.2150     0.4398    -0.5849 H            1    LIG   0.0000
  18 H           -4.3663     1.4506    -0.4414 H            1    LIG   0.0000
  19 H           -3.6891     2.8053     0.1691 H            1    LIG   0.0000
  20 H           -3.3807     2.3614    -1.3718 H            1    LIG   0.0000
  21 H            1.1572     3.0945     0.0104 H            1    LIG   0.0000
  22 H            3.2523     1.9297    -0.0170 H            1    LIG   0.0000
  23 H            3.7759    -1.2825    -0.8577 H            1    LIG   0.0000
  24 H            5.7375    -0.2000    -0.0510 H            1    LIG   0.0000
  25 H            4.7980     0.8682    -0.8528 H            1    LIG   0.0000
  26 H            4.8119     0.8579     0.7801 H            1    LIG   0.0000
  27 H            4.6971    -2.0830     1.1871 H            1    LIG   0.0000
  28 H            3.7714    -1.0251     2.0182 H            1    LIG   0.0000
  29 H            3.0730    -2.2536     1.1998 H            1    LIG   0.0000
  30 H            1.2220    -1.6868    -0.0233 H            1    LIG   0.0000
  31 H           -0.8730    -0.5221     0.0031 H            1    LIG   0.0000
@<TRIPOS>BOND
   1        1        2 1
   2        2        3 1
   3        2        4 1
   4        4        5 1
   5        5        6 ar
   6        6        7 ar
   7        7        8 ar
   8        8        9 1
   9        9       10 1
  10        9       11 1
  11        8       12 ar
  12       12       13 ar
  13       13        5 ar
  14        1       14 1
  15        1       15 1
  16        1       16 1
  17        2       17 1
  18        3       18 1
  19        3       19 1
  20        3       20 1
  21        6       21 1
  22        7       22 1
  23        9       23 1
  24       10       24 1
  25       10       25 1
  26       10       26 1
  27       11       27 1
  28       11       28 1
  29       11       29 1
  30       12       30 1
  31       13       31 1

@<TRIPOS>MOLECULE

  31   31
SMALL
USER_CHARGES
@<TRIPOS>ATOM
   1 C1          -2.6113     0.7105     1.4383 C.3          1    LIG   0.0000
   2 C2          -2.3542     1.2172     0.0285 C.3          1    LIG   0.0000
   3 C3          -3.5498     2.0280    -0.4443 C.3          1    LIG   0.0000
   4 O4          -1.1948     2.0371     0.0243 O.3          1    LIG   0.0000
   5 C5          -0.0170     1.3779     0.0084 C.ar         1    LIG   0.0000
   6 C6           1.1749     2.0947     0.0031 C.ar         1    LIG   0.0000
   7 C7           2.3916     1.4205    -0.0123 C.ar         1    LIG   0.0000
   8 C8           2.3966     0.0297    -0.0212 C.ar         1    LIG   0.0000
   9 C9           3.7226    -0.7135    -0.0371 C.3          1    LIG   0.0000
  10 C10          3.5517    -2.0393    -0.7606 C.3          1    LIG   0.0000
  11 C11          4.7652     0.1260    -0.7573 C.3          1    LIG   0.0000
  12 C12          1.2044    -0.6870    -0.0161 C.ar         1    LIG   0.0000
  13 C13         -0.0123    -0.0130    -0.0010 C.ar         1    LIG   0.0000
  14 H           -3.4278     0.1331     1.4413 H            1    LIG   0.0000
  15 H           -1.8248     0.1771     1.7494 H            1    LIG   0.0000
  16 H           -2.7506     1.4878     2.0518 H            1    LIG   0.0000
  17 H           -2.2150     0.4398    -0.5849 H            1    LIG   0.0000
  18 H           -4.3663     1.4506    -0.4414 H            1    LIG   0.0000
  19 H           -3.6891     2.8053     0.1691 H            1    LIG   0.0000
  20 H           -3.3807     2.3614    -1.3718 H            1    LIG   0.0000
  21 H            1.1572     3.0945     0.0104 H            1    LIG   0.0000
  22 H            3.2523     1.9297    -0.0170 H            1    LIG   0.0000
  23 H            4.0214    -0.8824     0.9021 H            1    LIG   0.0000
  24 H            4.4239    -2.5282    -0.7711 H            1    LIG   0.0000
  25 H            2.8657    -2.5916    -0.2869 H            1    LIG   0.0000
  26 H            3.2529    -1.8704    -1.6999 H            1    LIG   0.0000
  27 H            5.6375    -0.3629    -0.7678 H            1    LIG   0.0000
  28 H            4.4664     0.2949    -1.6965 H            1    LIG   0.0000
  29 H            4.8777     0.9982    -0.2813 H            1    LIG   0.0000
  30 H            1.2220    -1.6868    -0.0233 H            1    LIG   0.0000
  31 H           -0.8730    -0.5221     0.0031 H            1    LIG   0.0000
@<TRIPOS>BOND
   1        1        2 1
   2        2        3 1
   3        2        4 1
   4        4        5 1
   5        5        6 ar
   6        6        7 ar
   7        7        8 ar
   8        8        9 1
   9        9       10 1
  10        9       11 1
  11        8       12 ar
  12       12       13 ar
  13       13        5 ar
  14        1       14 1
  15        1       15 1
  16        1       16 1
  17        2       17 1
  18        3       18 1
  19        3       19 1
  20        3       20 1
  21        6       21 1
  22        7       22 1
  23        9       23 1
  24       10       24 1
  25       10       25 1
  26       10       26 1
  27       11       27 1
  28       11       28 1
  29       11       29 1
  30       12       30 1
  31       13       31 1

@<TRIPOS>MOLECULE

  31   31
SMALL
USER_CHARGES
@<TRIPOS>ATOM
   1 C1          -2.7685     2.2044     1.8302 C.3          1    LIG   0.0000
   2 C2          -2.2645     1.3620     0.6697 C.3          1    LIG   0.0000
   3 C3          -3.3943     1.1382    -0.3221 C.3          1    LIG   0.0000
   4 O4          -1.1948     2.0371     0.0243 O.3          1    LIG   0.0000
   5 C5          -0.0170     1.3779     0.0084 C.ar         1    LIG   0.0000
   6 C6           1.1749     2.0947     0.0031 C.ar         1    LIG   0.0000
   7 C7           2.3916     1.4205    -0.0123 C.ar         1    LIG   0.0000
   8 C8           2.3966     0.0297    -0.0212 C.ar         1    LIG   0.0000
   9 C9           3.7226    -0.7135    -0.0371 C.3          1    LIG   0.0000
  10 C10          4.7774     0.1169     0.6757 C.3          1    LIG   0.0000
  11 C11          3.5638    -2.0483     0.6724 C.3          1    LIG   0.0000
  12 C12          1.2044    -0.6870    -0.0161 C.ar         1    LIG   0.0000
  13 C13         -0.0123    -0.0130    -0.0010 C.ar         1    LIG   0.0000
  14 H           -3.5218     1.7290     2.2847 H            1    LIG   0.0000
  15 H           -2.0252     2.3516     2.4828 H            1    LIG   0.0000
  16 H           -3.0901     3.0868     1.4867 H            1    LIG   0.0000
  17 H           -1.9429     0.4797     1.0133 H            1    LIG   0.0000
  18 H           -4.1476     0.6629     0.1324 H            1    LIG   0.0000
  19 H           -3.7160     2.0206    -0.6657 H            1    LIG   0.0000
  20 H           -3.0627     0.5841    -1.0856 H            1    LIG   0.0000
  21 H            1.1572     3.0945     0.0104 H            1    LIG   0.0000
  22 H            3.2523     1.9297    -0.0170 H            1    LIG   0.0000
  23 H            4.0053    -0.8705    -0.9834 H            1    LIG   0.0000
  24 H            5.6497    -0.3720     0.6652 H            1    LIG   0.0000
  25 H            4.8818     0.9951     0.2089 H            1    LIG   0.0000
  26 H            4.4947     0.2739     1.6220 H            1    LIG   0.0000
  27 H            4.4361    -2.5372     0.6618 H            1    LIG   0.0000
  28 H            3.2811    -1.8913     1.6186 H            1    LIG   0.0000
  29 H            2.8699    -2.5947     0.2034 H            1    LIG   0.0000
  30 H            1.2220    -1.6868    -0.0233 H            1    LIG   0.0000
  31 H           -0.8730    -0.5221     0.0031 H            1    LIG   0.0000
@<TRIPOS>BOND
   1        1        2 1
   2        2        3 1
   3        2        4 1
   4        4        5 1
   5        5        6 ar
   6        6        7 ar
   7        7        8 ar
   8        8        9 1
   9        9       10 1
  10        9       11 1
  11        8       12 ar
  12       12       13 ar
  13       13        5 ar
  14        1       14 1
  15        1       15 1
  16        1       16 1
  17        2       17 1
  18        3       18 1
  19        3       19 1
  20        3       20 1
  21        6       21 1
  22        7       22 1
  23        9       23 1
  24       10       24 1
  25       10       25 1
  26       10       26 1
  27       11       27 1
  28       11       28 1
  29       11       29 1
  30       12       30 1
  31       13       31 1

