@<TRIPOS>MOLECULE
*****
 31 31 0 0 0
SMALL
USER_CHARGES

@<TRIPOS>ATOM
      1 C1         -2.6113    0.7105    1.4383 C.3     1  LIG1        0.0000
      2 C2         -2.3542    1.2172    0.0285 C.3     1  LIG1        0.0000
      3 C3         -3.5498    2.0280   -0.4443 C.3     1  LIG1        0.0000
      4 O4         -1.1948    2.0371    0.0243 O.3     1  LIG1        0.0000
      5 C5         -0.0170    1.3779    0.0084 C.ar    1  LIG1        0.0000
      6 C6          1.1749    2.0947    0.0031 C.ar    1  LIG1        0.0000
      7 C7          2.3916    1.4205   -0.0123 C.ar    1  LIG1        0.0000
      8 C8          2.3966    0.0297   -0.0212 C.ar    1  LIG1        0.0000
      9 C9          3.7226   -0.7135   -0.0371 C.3     1  LIG1        0.0000
     10 C10         4.8652    0.2889   -0.0405 C.3     1  LIG1        0.0000
     11 C11         3.8248   -1.5941    1.1976 C.3     1  LIG1        0.0000
     12 C12         1.2044   -0.6870   -0.0161 C.ar    1  LIG1        0.0000
     13 C13        -0.0123   -0.0130   -0.0010 C.ar    1  LIG1        0.0000
     14 H          -3.4278    0.1331    1.4413 H       1  LIG1        0.0000
     15 H          -1.8248    0.1771    1.7494 H       1  LIG1        0.0000
     16 H          -2.7506    1.4878    2.0518 H       1  LIG1        0.0000
     17 H          -2.2150    0.4398   -0.5849 H       1  LIG1        0.0000
     18 H          -4.3663    1.4506   -0.4414 H       1  LIG1        0.0000
     19 H          -3.6891    2.8053    0.1691 H       1  LIG1        0.0000
     20 H          -3.3807    2.3614   -1.3718 H       1  LIG1        0.0000
     21 H           1.1572    3.0945    0.0104 H       1  LIG1        0.0000
     22 H           3.2523    1.9297   -0.0170 H       1  LIG1        0.0000
     23 H           3.7759   -1.2825   -0.8577 H       1  LIG1        0.0000
     24 H           5.7375   -0.2000   -0.0510 H       1  LIG1        0.0000
     25 H           4.7980    0.8682   -0.8528 H       1  LIG1        0.0000
     26 H           4.8119    0.8579    0.7801 H       1  LIG1        0.0000
     27 H           4.6971   -2.0830    1.1871 H       1  LIG1        0.0000
     28 H           3.7714   -1.0251    2.0182 H       1  LIG1        0.0000
     29 H           3.0730   -2.2536    1.1998 H       1  LIG1        0.0000
     30 H           1.2220   -1.6868   -0.0233 H       1  LIG1        0.0000
     31 H          -0.8730   -0.5221    0.0031 H       1  LIG1        0.0000
@<TRIPOS>BOND
     1     1     2    1
     2     2     3    1
     3     2     4    1
     4     4     5    1
     5     5     6   ar
     6     6     7   ar
     7     7     8   ar
     8     8     9    1
     9     9    10    1
    10     9    11    1
    11     8    12   ar
    12    12    13   ar
    13    13     5   ar
    14     1    14    1
    15     1    15    1
    16     1    16    1
    17     2    17    1
    18     3    18    1
    19     3    19    1
    20     3    20    1
    21     6    21    1
    22     7    22    1
    23     9    23    1
    24    10    24    1
    25    10    25    1
    26    10    26    1
    27    11    27    1
    28    11    28    1
    29    11    29    1
    30    12    30    1
    31    13    31    1
