@<TRIPOS>MOLECULE
*****
 31 31 0 0 0
SMALL
USER_CHARGES

@<TRIPOS>ATOM
      1 C1         -2.4175    4.0511   -0.4389 C.3     1  LIG1        0.0000
      2 C2         -1.1023    3.4540    0.0346 C.3     1  LIG1        0.0000
      3 C3         -0.8081    3.9324    1.4470 C.3     1  LIG1        0.0000
      4 O4         -1.1948    2.0371    0.0243 O.3     1  LIG1        0.0000
      5 C5         -0.0170    1.3779    0.0084 C.ar    1  LIG1        0.0000
      6 C6          1.1749    2.0947    0.0031 C.ar    1  LIG1        0.0000
      7 C7          2.3916    1.4205   -0.0123 C.ar    1  LIG1        0.0000
      8 C8          2.3966    0.0297   -0.0212 C.ar    1  LIG1        0.0000
      9 C9          3.7226   -0.7135   -0.0371 C.3     1  LIG1        0.0000
     10 C10         4.5043   -0.3283   -1.2825 C.3     1  LIG1        0.0000
     11 C11         4.5254   -0.3440    1.1995 C.3     1  LIG1        0.0000
     12 C12         1.2044   -0.6870   -0.0161 C.ar    1  LIG1        0.0000
     13 C13        -0.0123   -0.0130   -0.0010 C.ar    1  LIG1        0.0000
     14 H          -2.3523    5.0490   -0.4317 H       1  LIG1        0.0000
     15 H          -2.6111    3.7364   -1.3681 H       1  LIG1        0.0000
     16 H          -3.1543    3.7608    0.1717 H       1  LIG1        0.0000
     17 H          -0.3655    3.7444   -0.5760 H       1  LIG1        0.0000
     18 H          -0.7429    4.9302    1.4543 H       1  LIG1        0.0000
     19 H          -1.5449    3.6420    2.0576 H       1  LIG1        0.0000
     20 H           0.0572    3.5396    1.7585 H       1  LIG1        0.0000
     21 H           1.1572    3.0945    0.0104 H       1  LIG1        0.0000
     22 H           3.2523    1.9297   -0.0170 H       1  LIG1        0.0000
     23 H           3.5524   -1.6989   -0.0419 H       1  LIG1        0.0000
     24 H           5.3766   -0.8172   -1.2930 H       1  LIG1        0.0000
     25 H           3.9761   -0.5714   -2.0961 H       1  LIG1        0.0000
     26 H           4.6745    0.6571   -1.2777 H       1  LIG1        0.0000
     27 H           5.3977   -0.8329    1.1890 H       1  LIG1        0.0000
     28 H           4.6956    0.6414    1.2043 H       1  LIG1        0.0000
     29 H           4.0111   -0.5974    2.0188 H       1  LIG1        0.0000
     30 H           1.2220   -1.6868   -0.0233 H       1  LIG1        0.0000
     31 H          -0.8730   -0.5221    0.0031 H       1  LIG1        0.0000
@<TRIPOS>BOND
     1     1     2    1
     2     2     3    1
     3     2     4    1
     4     4     5    1
     5     5     6   ar
     6     6     7   ar
     7     7     8   ar
     8     8     9    1
     9     9    10    1
    10     9    11    1
    11     8    12   ar
    12    12    13   ar
    13    13     5   ar
    14     1    14    1
    15     1    15    1
    16     1    16    1
    17     2    17    1
    18     3    18    1
    19     3    19    1
    20     3    20    1
    21     6    21    1
    22     7    22    1
    23     9    23    1
    24    10    24    1
    25    10    25    1
    26    10    26    1
    27    11    27    1
    28    11    28    1
    29    11    29    1
    30    12    30    1
    31    13    31    1
