@<TRIPOS>MOLECULE
*****
 31 31 0 0 0
SMALL
USER_CHARGES

@<TRIPOS>ATOM
      1 C1         -3.5409    2.0203    0.5359 C.3     1  LIG1        0.0000
      2 C2         -2.3542    1.2172    0.0285 C.3     1  LIG1        0.0000
      3 C3         -2.6372    0.7325   -1.3841 C.3     1  LIG1        0.0000
      4 O4         -1.1948    2.0371    0.0243 O.3     1  LIG1        0.0000
      5 C5         -0.0170    1.3779    0.0084 C.ar    1  LIG1        0.0000
      6 C6          1.1749    2.0947    0.0031 C.ar    1  LIG1        0.0000
      7 C7          2.3916    1.4205   -0.0123 C.ar    1  LIG1        0.0000
      8 C8          2.3966    0.0297   -0.0212 C.ar    1  LIG1        0.0000
      9 C9          3.7226   -0.7135   -0.0371 C.3     1  LIG1        0.0000
     10 C10         4.8652    0.2889   -0.0405 C.3     1  LIG1        0.0000
     11 C11         3.8248   -1.5941    1.1976 C.3     1  LIG1        0.0000
     12 C12         1.2044   -0.6870   -0.0161 C.ar    1  LIG1        0.0000
     13 C13        -0.0123   -0.0130   -0.0010 C.ar    1  LIG1        0.0000
     14 H          -4.3573    1.4429    0.5388 H       1  LIG1        0.0000
     15 H          -3.3547    2.3392    1.4652 H       1  LIG1        0.0000
     16 H          -3.6912    2.8072   -0.0627 H       1  LIG1        0.0000
     17 H          -2.2039    0.4303    0.6271 H       1  LIG1        0.0000
     18 H          -3.4536    0.1552   -1.3811 H       1  LIG1        0.0000
     19 H          -2.7875    1.5194   -1.9826 H       1  LIG1        0.0000
     20 H          -1.8565    0.2042   -1.7178 H       1  LIG1        0.0000
     21 H           1.1572    3.0945    0.0104 H       1  LIG1        0.0000
     22 H           3.2523    1.9297   -0.0170 H       1  LIG1        0.0000
     23 H           3.7759   -1.2825   -0.8577 H       1  LIG1        0.0000
     24 H           5.7375   -0.2000   -0.0510 H       1  LIG1        0.0000
     25 H           4.7980    0.8682   -0.8528 H       1  LIG1        0.0000
     26 H           4.8119    0.8579    0.7801 H       1  LIG1        0.0000
     27 H           4.6971   -2.0830    1.1871 H       1  LIG1        0.0000
     28 H           3.7714   -1.0251    2.0182 H       1  LIG1        0.0000
     29 H           3.0730   -2.2536    1.1998 H       1  LIG1        0.0000
     30 H           1.2220   -1.6868   -0.0233 H       1  LIG1        0.0000
     31 H          -0.8730   -0.5221    0.0031 H       1  LIG1        0.0000
@<TRIPOS>BOND
     1     1     2    1
     2     2     3    1
     3     2     4    1
     4     4     5    1
     5     5     6   ar
     6     6     7   ar
     7     7     8   ar
     8     8     9    1
     9     9    10    1
    10     9    11    1
    11     8    12   ar
    12    12    13   ar
    13    13     5   ar
    14     1    14    1
    15     1    15    1
    16     1    16    1
    17     2    17    1
    18     3    18    1
    19     3    19    1
    20     3    20    1
    21     6    21    1
    22     7    22    1
    23     9    23    1
    24    10    24    1
    25    10    25    1
    26    10    26    1
    27    11    27    1
    28    11    28    1
    29    11    29    1
    30    12    30    1
    31    13    31    1
