@<TRIPOS>MOLECULE
*****
 31 34 0 0 0
SMALL
USER_CHARGES

@<TRIPOS>ATOM
      1 C1          1.0000    1.0000    1.0000 C.2     1  LIG1        0.0000
      2 C2          2.3187    1.0000    1.0000 C.2     1  LIG1        0.0000
      3 C3          3.1746    2.1641    1.0164 C.ar    1  LIG1        0.0000
      4 C4          2.9974    3.5468    1.0254 C.ar    1  LIG1        0.0000
      5 C5          4.0631    4.4389    1.0338 C.ar    1  LIG1        0.0000
      6 C6          5.3604    3.9361    1.0302 C.ar    1  LIG1        0.0000
      7 C7          5.5495    2.5571    1.0199 C.ar    1  LIG1        0.0000
      8 C8          4.4607    1.6904    1.0140 C.ar    1  LIG1        0.0000
      9 C9          4.4588    0.2487    1.0011 C.ar    1  LIG1        0.0000
     10 C10         5.5206   -0.6484    1.0017 C.ar    1  LIG1        0.0000
     11 C11         5.2462   -2.0116    0.9915 C.ar    1  LIG1        0.0000
     12 C12         3.9361   -2.4758    0.9779 C.ar    1  LIG1        0.0000
     13 C13         2.8999   -1.5479    0.9847 C.ar    1  LIG1        0.0000
     14 C14         3.1445   -0.1786    1.0018 C.ar    1  LIG1        0.0000
     15 C15         0.2765    2.2532    1.0000 C.2     1  LIG1        0.0000
     16 C16        -0.5940    2.6458    0.0322 C.2     1  LIG1        0.0000
     17 C17        -1.0518    3.9197    0.4367 C.2     1  LIG1        0.0000
     18 C18        -0.4283    4.2012    1.6148 C.2     1  LIG1        0.0000
     19 O19         0.3523    3.1872    1.9226 O.2     1  LIG1        0.0000
     20 H           0.5000    0.1340    1.0000 H       1  LIG1        0.0000
     21 H           2.0662    3.9114    1.0258 H       1  LIG1        0.0000
     22 H           3.9003    5.4255    1.0423 H       1  LIG1        0.0000
     23 H           6.1451    4.5560    1.0348 H       1  LIG1        0.0000
     24 H           6.4777    2.1851    1.0168 H       1  LIG1        0.0000
     25 H           6.4649   -0.3194    1.0092 H       1  LIG1        0.0000
     26 H           6.0016   -2.6668    0.9939 H       1  LIG1        0.0000
     27 H           3.7425   -3.4568    0.9636 H       1  LIG1        0.0000
     28 H           1.9545   -1.8736    0.9771 H       1  LIG1        0.0000
     29 H          -0.8546    2.1406   -0.7905 H       1  LIG1        0.0000
     30 H          -1.7057    4.5012   -0.0472 H       1  LIG1        0.0000
     31 H          -0.5441    5.0356    2.1537 H       1  LIG1        0.0000
@<TRIPOS>BOND
     1     1     2    2
     2     2     3    1
     3     3     4   ar
     4     4     5   ar
     5     5     6   ar
     6     6     7   ar
     7     7     8   ar
     8     8     3   ar
     9     8     9    1
    10     9    10   ar
    11    10    11   ar
    12    11    12   ar
    13    12    13   ar
    14    13    14   ar
    15    14     9   ar
    16    14     2    1
    17     1    15    1
    18    15    16    2
    19    16    17    1
    20    17    18    2
    21    18    19    1
    22    19    15    1
    23     1    20    1
    24     4    21    1
    25     5    22    1
    26     6    23    1
    27     7    24    1
    28    10    25    1
    29    11    26    1
    30    12    27    1
    31    13    28    1
    32    16    29    1
    33    17    30    1
    34    18    31    1
