@<TRIPOS>MOLECULE

  30   31
SMALL
USER_CHARGES
@<TRIPOS>ATOM
   1 O1           1.2733     1.2733    -0.3664 O.3          1    LIG   0.0000
   2 C2           1.0000     1.0000     1.0000 C.3          1    LIG   0.0000
   3 C3           1.8776     1.8776     1.8776 C.3          1    LIG   0.0000
   4 S4           1.5292     1.5292     3.6192 S.3          1    LIG   0.0000
   5 C5           2.6107     2.6107     4.4460 C.ar         1    LIG   0.0000
   6 C6           3.4497     3.4454     3.7157 C.ar         1    LIG   0.0000
   7 C7           4.3017     4.3087     4.3931 C.ar         1    LIG   0.0000
   8 C8           4.2952     4.3152     5.7825 C.ar         1    LIG   0.0000
   9 C9           3.4689     3.4594     6.5102 C.ar         1    LIG   0.0000
  10 C10          2.6063     2.6063     5.8316 C.ar         1    LIG   0.0000
  11 C11          3.5024     3.4362     8.0298 C.3          1    LIG   0.0000
  12 C12          4.1009     4.7136     8.5933 C.3          1    LIG   0.0000
  13 C13          5.4529     4.9012     7.9235 C.3          1    LIG   0.0000
  14 C14          5.2156     5.3042     6.4795 C.3          1    LIG   0.0000
  15 H            0.6959     0.6959    -0.9437 H            1    LIG   0.0000
  16 H            1.1925     0.0377     1.1925 H            1    LIG   0.0000
  17 H            0.0377     1.1925     1.1925 H            1    LIG   0.0000
  18 H            2.8398     1.6851     1.6851 H            1    LIG   0.0000
  19 H            1.6851     2.8398     1.6851 H            1    LIG   0.0000
  20 H            3.4399     3.4244     2.7160 H            1    LIG   0.0000
  21 H            4.9121     4.9179     3.8870 H            1    LIG   0.0000
  22 H            1.9921     1.9989     6.3355 H            1    LIG   0.0000
  23 H            4.0543     2.6585     8.3307 H            1    LIG   0.0000
  24 H            2.5689     3.3354     8.3738 H            1    LIG   0.0000
  25 H            4.2160     4.6319     9.5832 H            1    LIG   0.0000
  26 H            3.5057     5.4910     8.3899 H            1    LIG   0.0000
  27 H            5.9675     5.6176     8.3946 H            1    LIG   0.0000
  28 H            5.9682     4.0448     7.9555 H            1    LIG   0.0000
  29 H            4.7967     6.2119     6.4580 H            1    LIG   0.0000
  30 H            6.0921     5.3300     5.9989 H            1    LIG   0.0000
@<TRIPOS>BOND
   1        1        2 1
   2        2        3 1
   3        3        4 1
   4        4        5 1
   5        5        6 ar
   6        6        7 ar
   7        7        8 ar
   8        8        9 ar
   9        9       10 ar
  10       10        5 ar
  11        9       11 1
  12       11       12 1
  13       12       13 1
  14       13       14 1
  15       14        8 1
  16        1       15 1
  17        2       16 1
  18        2       17 1
  19        3       18 1
  20        3       19 1
  21        6       20 1
  22        7       21 1
  23       10       22 1
  24       11       23 1
  25       11       24 1
  26       12       25 1
  27       12       26 1
  28       13       27 1
  29       13       28 1
  30       14       29 1
  31       14       30 1

@<TRIPOS>MOLECULE

  30   31
SMALL
USER_CHARGES
@<TRIPOS>ATOM
   1 O1           1.2733     1.2733    -0.3664 O.3          1    LIG   0.0000
   2 C2           1.0000     1.0000     1.0000 C.3          1    LIG   0.0000
   3 C3           1.8776     1.8776     1.8776 C.3          1    LIG   0.0000
   4 S4           1.5292     1.5292     3.6192 S.3          1    LIG   0.0000
   5 C5           2.6107     2.6107     4.4460 C.ar         1    LIG   0.0000
   6 C6           2.6349     2.6393     5.8361 C.ar         1    LIG   0.0000
   7 C7           3.5111     3.5041     6.4798 C.ar         1    LIG   0.0000
   8 C8           4.3396     4.3196     5.7187 C.ar         1    LIG   0.0000
   9 C9           4.2946     4.3041     4.3250 C.ar         1    LIG   0.0000
  10 C10          3.4280     3.4280     3.6817 C.ar         1    LIG   0.0000
  11 C11          5.1680     5.2342     3.4987 C.3          1    LIG   0.0000
  12 C12          6.3546     5.7419     4.2999 C.3          1    LIG   0.0000
  13 C13          5.7979     6.3496     5.5776 C.3          1    LIG   0.0000
  14 C14          5.3092     5.2205     6.4665 C.3          1    LIG   0.0000
  15 H            0.6959     0.6959    -0.9437 H            1    LIG   0.0000
  16 H            1.1925     0.0377     1.1925 H            1    LIG   0.0000
  17 H            0.0377     1.1925     1.1925 H            1    LIG   0.0000
  18 H            2.8398     1.6851     1.6851 H            1    LIG   0.0000
  19 H            1.6851     2.8398     1.6851 H            1    LIG   0.0000
  20 H            2.0295     2.0450     6.3655 H            1    LIG   0.0000
  21 H            3.5452     3.5393     7.4786 H            1    LIG   0.0000
  22 H            3.3949     3.3882     2.6831 H            1    LIG   0.0000
  23 H            4.6194     6.0153     3.2003 H            1    LIG   0.0000
  24 H            5.5047     4.7381     2.6984 H            1    LIG   0.0000
  25 H            6.8510     6.4351     3.7773 H            1    LIG   0.0000
  26 H            6.9706     4.9852     4.5190 H            1    LIG   0.0000
  27 H            6.5146     6.8645     6.0477 H            1    LIG   0.0000
  28 H            5.0375     6.9610     5.3582 H            1    LIG   0.0000
  29 H            6.0936     4.6783     6.7675 H            1    LIG   0.0000
  30 H            4.8466     5.6087     7.2636 H            1    LIG   0.0000
@<TRIPOS>BOND
   1        1        2 1
   2        2        3 1
   3        3        4 1
   4        4        5 1
   5        5        6 ar
   6        6        7 ar
   7        7        8 ar
   8        8        9 ar
   9        9       10 ar
  10       10        5 ar
  11        9       11 1
  12       11       12 1
  13       12       13 1
  14       13       14 1
  15       14        8 1
  16        1       15 1
  17        2       16 1
  18        2       17 1
  19        3       18 1
  20        3       19 1
  21        6       20 1
  22        7       21 1
  23       10       22 1
  24       11       23 1
  25       11       24 1
  26       12       25 1
  27       12       26 1
  28       13       27 1
  29       13       28 1
  30       14       29 1
  31       14       30 1

@<TRIPOS>MOLECULE

  30   31
SMALL
USER_CHARGES
@<TRIPOS>ATOM
   1 O1           1.2733     1.2733    -0.3664 O.3          1    LIG   0.0000
   2 C2           1.0000     1.0000     1.0000 C.3          1    LIG   0.0000
   3 C3           1.8776     1.8776     1.8776 C.3          1    LIG   0.0000
   4 S4           1.5292     1.5292     3.6192 S.3          1    LIG   0.0000
   5 C5           2.6107     2.6107     4.4460 C.ar         1    LIG   0.0000
   6 C6           2.1912     3.8955     4.7732 C.ar         1    LIG   0.0000
   7 C7           3.0661     4.7434     5.4408 C.ar         1    LIG   0.0000
   8 C8           4.3383     4.2870     5.7630 C.ar         1    LIG   0.0000
   9 C9           4.7622     3.0058     5.4117 C.ar         1    LIG   0.0000
  10 C10          3.8811     2.1531     4.7566 C.ar         1    LIG   0.0000
  11 C11          6.1720     2.5299     5.7230 C.3          1    LIG   0.0000
  12 C12          6.8076     3.3566     6.8277 C.3          1    LIG   0.0000
  13 C13          6.6994     4.8137     6.4073 C.3          1    LIG   0.0000
  14 C14          5.2465     5.2360     6.5281 C.3          1    LIG   0.0000
  15 H            0.6959     0.6959    -0.9437 H            1    LIG   0.0000
  16 H            1.1925     0.0377     1.1925 H            1    LIG   0.0000
  17 H            0.0377     1.1925     1.1925 H            1    LIG   0.0000
  18 H            2.8398     1.6851     1.6851 H            1    LIG   0.0000
  19 H            1.6851     2.8398     1.6851 H            1    LIG   0.0000
  20 H            1.2716     4.2052     4.5311 H            1    LIG   0.0000
  21 H            2.7838     5.6707     5.6864 H            1    LIG   0.0000
  22 H            4.1598     1.2240     4.5134 H            1    LIG   0.0000
  23 H            6.7306     2.6068     4.8972 H            1    LIG   0.0000
  24 H            6.1355     1.5736     6.0129 H            1    LIG   0.0000
  25 H            7.7680     3.1012     6.9390 H            1    LIG   0.0000
  26 H            6.3218     3.2104     7.6895 H            1    LIG   0.0000
  27 H            7.2675     5.3810     7.0035 H            1    LIG   0.0000
  28 H            7.0041     4.9163     5.4604 H            1    LIG   0.0000
  29 H            4.9842     5.2331     7.4931 H            1    LIG   0.0000
  30 H            5.1422     6.1588     6.1572 H            1    LIG   0.0000
@<TRIPOS>BOND
   1        1        2 1
   2        2        3 1
   3        3        4 1
   4        4        5 1
   5        5        6 ar
   6        6        7 ar
   7        7        8 ar
   8        8        9 ar
   9        9       10 ar
  10       10        5 ar
  11        9       11 1
  12       11       12 1
  13       12       13 1
  14       13       14 1
  15       14        8 1
  16        1       15 1
  17        2       16 1
  18        2       17 1
  19        3       18 1
  20        3       19 1
  21        6       20 1
  22        7       21 1
  23       10       22 1
  24       11       23 1
  25       11       24 1
  26       12       25 1
  27       12       26 1
  28       13       27 1
  29       13       28 1
  30       14       29 1
  31       14       30 1

@<TRIPOS>MOLECULE

  30   31
SMALL
USER_CHARGES
@<TRIPOS>ATOM
   1 O1           1.2733     1.2733    -0.3664 O.3          1    LIG   0.0000
   2 C2           1.0000     1.0000     1.0000 C.3          1    LIG   0.0000
   3 C3           1.8776     1.8776     1.8776 C.3          1    LIG   0.0000
   4 S4           1.5292     1.5292     3.6192 S.3          1    LIG   0.0000
   5 C5           2.6107     2.6107     4.4460 C.ar         1    LIG   0.0000
   6 C6           3.8935     2.1891     4.7786 C.ar         1    LIG   0.0000
   7 C7           4.7467     3.0694     5.4321 C.ar         1    LIG   0.0000
   8 C8           4.2965     4.3478     5.7382 C.ar         1    LIG   0.0000
   9 C9           3.0013     4.7577     5.4235 C.ar         1    LIG   0.0000
  10 C10          2.1531     3.8811     4.7566 C.ar         1    LIG   0.0000
  11 C11          2.4984     6.1405     5.8054 C.3          1    LIG   0.0000
  12 C12          3.6479     7.0990     6.0654 C.3          1    LIG   0.0000
  13 C13          4.5514     6.4371     7.0937 C.3          1    LIG   0.0000
  14 C14          5.2782     5.2887     6.4179 C.3          1    LIG   0.0000
  15 H            0.6959     0.6959    -0.9437 H            1    LIG   0.0000
  16 H            1.1925     0.0377     1.1925 H            1    LIG   0.0000
  17 H            0.0377     1.1925     1.1925 H            1    LIG   0.0000
  18 H            2.8398     1.6851     1.6851 H            1    LIG   0.0000
  19 H            1.6851     2.8398     1.6851 H            1    LIG   0.0000
  20 H            4.1978     1.2643     4.5504 H            1    LIG   0.0000
  21 H            5.6735     2.7866     5.6791 H            1    LIG   0.0000
  22 H            1.2272     4.1630     4.5051 H            1    LIG   0.0000
  23 H            1.9431     6.0669     6.6338 H            1    LIG   0.0000
  24 H            1.9381     6.5000     5.0593 H            1    LIG   0.0000
  25 H            3.2990     7.9658     6.4216 H            1    LIG   0.0000
  26 H            4.1544     7.2659     5.2195 H            1    LIG   0.0000
  27 H            5.2147     7.1011     7.4388 H            1    LIG   0.0000
  28 H            4.0017     6.0894     7.8533 H            1    LIG   0.0000
  29 H            5.9061     5.6572     5.7324 H            1    LIG   0.0000
  30 H            5.7964     4.7799     7.1053 H            1    LIG   0.0000
@<TRIPOS>BOND
   1        1        2 1
   2        2        3 1
   3        3        4 1
   4        4        5 1
   5        5        6 ar
   6        6        7 ar
   7        7        8 ar
   8        8        9 ar
   9        9       10 ar
  10       10        5 ar
  11        9       11 1
  12       11       12 1
  13       12       13 1
  14       13       14 1
  15       14        8 1
  16        1       15 1
  17        2       16 1
  18        2       17 1
  19        3       18 1
  20        3       19 1
  21        6       20 1
  22        7       21 1
  23       10       22 1
  24       11       23 1
  25       11       24 1
  26       12       25 1
  27       12       26 1
  28       13       27 1
  29       13       28 1
  30       14       29 1
  31       14       30 1

@<TRIPOS>MOLECULE

  30   31
SMALL
USER_CHARGES
@<TRIPOS>ATOM
   1 O1           1.2733     1.2733    -0.3664 O.3          1    LIG   0.0000
   2 C2           1.0000     1.0000     1.0000 C.3          1    LIG   0.0000
   3 C3           1.8776     1.8776     1.8776 C.3          1    LIG   0.0000
   4 S4           1.5292     1.5292     3.6192 S.3          1    LIG   0.0000
   5 C5          -0.0660     2.1888     3.8262 C.ar         1    LIG   0.0000
   6 C6          -0.7109     2.7946     2.7534 C.ar         1    LIG   0.0000
   7 C7          -1.9885     3.3091     2.9352 C.ar         1    LIG   0.0000
   8 C8          -2.5888     3.2070     4.1841 C.ar         1    LIG   0.0000
   9 C9          -1.9284     2.6196     5.2628 C.ar         1    LIG   0.0000
  10 C10         -0.6558     2.0921     5.0763 C.ar         1    LIG   0.0000
  11 C11         -2.5708     2.5556     6.6390 C.3          1    LIG   0.0000
  12 C12         -4.0793     2.7149     6.5575 C.3          1    LIG   0.0000
  13 C13         -4.3472     3.9952     5.7823 C.3          1    LIG   0.0000
  14 C14         -4.0022     3.7486     4.3249 C.3          1    LIG   0.0000
  15 H            0.6959     0.6959    -0.9437 H            1    LIG   0.0000
  16 H            1.1925     0.0377     1.1925 H            1    LIG   0.0000
  17 H            0.0377     1.1925     1.1925 H            1    LIG   0.0000
  18 H            2.8398     1.6851     1.6851 H            1    LIG   0.0000
  19 H            1.6851     2.8398     1.6851 H            1    LIG   0.0000
  20 H           -0.2609     2.8590     1.8627 H            1    LIG   0.0000
  21 H           -2.4703     3.7475     2.1764 H            1    LIG   0.0000
  22 H           -0.1736     1.6497     5.8325 H            1    LIG   0.0000
  23 H           -2.1968     3.2890     7.2066 H            1    LIG   0.0000
  24 H           -2.3595     1.6712     7.0553 H            1    LIG   0.0000
  25 H           -4.4681     2.7816     7.4764 H            1    LIG   0.0000
  26 H           -4.4823     1.9336     6.0809 H            1    LIG   0.0000
  27 H           -5.3121     4.2447     5.8641 H            1    LIG   0.0000
  28 H           -3.7798     4.7349     6.1440 H            1    LIG   0.0000
  29 H           -4.6462     3.0852     3.9440 H            1    LIG   0.0000
  30 H           -4.0741     4.6098     3.8216 H            1    LIG   0.0000
@<TRIPOS>BOND
   1        1        2 1
   2        2        3 1
   3        3        4 1
   4        4        5 1
   5        5        6 ar
   6        6        7 ar
   7        7        8 ar
   8        8        9 ar
   9        9       10 ar
  10       10        5 ar
  11        9       11 1
  12       11       12 1
  13       12       13 1
  14       13       14 1
  15       14        8 1
  16        1       15 1
  17        2       16 1
  18        2       17 1
  19        3       18 1
  20        3       19 1
  21        6       20 1
  22        7       21 1
  23       10       22 1
  24       11       23 1
  25       11       24 1
  26       12       25 1
  27       12       26 1
  28       13       27 1
  29       13       28 1
  30       14       29 1
  31       14       30 1

@<TRIPOS>MOLECULE

  30   31
SMALL
USER_CHARGES
@<TRIPOS>ATOM
   1 O1           1.2733     1.2733    -0.3664 O.3          1    LIG   0.0000
   2 C2           1.0000     1.0000     1.0000 C.3          1    LIG   0.0000
   3 C3           1.8776     1.8776     1.8776 C.3          1    LIG   0.0000
   4 S4           1.5292     1.5292     3.6192 S.3          1    LIG   0.0000
   5 C5          -0.0660     2.1888     3.8262 C.ar         1    LIG   0.0000
   6 C6          -0.6943     2.1095     5.0643 C.ar         1    LIG   0.0000
   7 C7          -1.9659     2.6489     5.2133 C.ar         1    LIG   0.0000
   8 C8          -2.5781     3.2523     4.1217 C.ar         1    LIG   0.0000
   9 C9          -1.9533     3.3083     2.8763 C.ar         1    LIG   0.0000
  10 C10         -0.6751     2.7812     2.7318 C.ar         1    LIG   0.0000
  11 C11         -2.6487     3.9255     1.6736 C.3          1    LIG   0.0000
  12 C12         -3.7733     4.8548     2.0969 C.3          1    LIG   0.0000
  13 C13         -4.6784     4.0596     3.0243 C.3          1    LIG   0.0000
  14 C14         -3.9525     3.8633     4.3427 C.3          1    LIG   0.0000
  15 H            0.6959     0.6959    -0.9437 H            1    LIG   0.0000
  16 H            1.1925     0.0377     1.1925 H            1    LIG   0.0000
  17 H            0.0377     1.1925     1.1925 H            1    LIG   0.0000
  18 H            2.8398     1.6851     1.6851 H            1    LIG   0.0000
  19 H            1.6851     2.8398     1.6851 H            1    LIG   0.0000
  20 H           -0.2369     1.6698     5.8372 H            1    LIG   0.0000
  21 H           -2.4348     2.6035     6.0954 H            1    LIG   0.0000
  22 H           -0.2027     2.8289     1.8517 H            1    LIG   0.0000
  23 H           -3.0276     3.1940     1.1067 H            1    LIG   0.0000
  24 H           -1.9795     4.4458     1.1431 H            1    LIG   0.0000
  25 H           -4.2864     5.1611     1.2950 H            1    LIG   0.0000
  26 H           -3.4009     5.6487     2.5774 H            1    LIG   0.0000
  27 H           -5.5299     4.5610     3.1781 H            1    LIG   0.0000
  28 H           -4.8844     3.1704     2.6157 H            1    LIG   0.0000
  29 H           -3.8477     4.7497     4.7935 H            1    LIG   0.0000
  30 H           -4.4912     3.2546     4.9252 H            1    LIG   0.0000
@<TRIPOS>BOND
   1        1        2 1
   2        2        3 1
   3        3        4 1
   4        4        5 1
   5        5        6 ar
   6        6        7 ar
   7        7        8 ar
   8        8        9 ar
   9        9       10 ar
  10       10        5 ar
  11        9       11 1
  12       11       12 1
  13       12       13 1
  14       13       14 1
  15       14        8 1
  16        1       15 1
  17        2       16 1
  18        2       17 1
  19        3       18 1
  20        3       19 1
  21        6       20 1
  22        7       21 1
  23       10       22 1
  24       11       23 1
  25       11       24 1
  26       12       25 1
  27       12       26 1
  28       13       27 1
  29       13       28 1
  30       14       29 1
  31       14       30 1

@<TRIPOS>MOLECULE

  30   31
SMALL
USER_CHARGES
@<TRIPOS>ATOM
   1 O1           1.2733     1.2733    -0.3664 O.3          1    LIG   0.0000
   2 C2           1.0000     1.0000     1.0000 C.3          1    LIG   0.0000
   3 C3           1.8776     1.8776     1.8776 C.3          1    LIG   0.0000
   4 S4           1.5292     1.5292     3.6192 S.3          1    LIG   0.0000
   5 C5          -0.0660     2.1888     3.8262 C.ar         1    LIG   0.0000
   6 C6          -1.1818     1.3909     3.5977 C.ar         1    LIG   0.0000
   7 C7          -2.4486     1.9325     3.7757 C.ar         1    LIG   0.0000
   8 C8          -2.5689     3.2576     4.1757 C.ar         1    LIG   0.0000
   9 C9          -1.4472     4.0603     4.3807 C.ar         1    LIG   0.0000
  10 C10         -0.1797     3.5134     4.2165 C.ar         1    LIG   0.0000
  11 C11         -1.5863     5.5232     4.7700 C.3          1    LIG   0.0000
  12 C12         -2.9528     5.8131     5.3669 C.3          1    LIG   0.0000
  13 C13         -3.9858     5.3124     4.3700 C.3          1    LIG   0.0000
  14 C14         -3.9739     3.7948     4.3958 C.3          1    LIG   0.0000
  15 H            0.6959     0.6959    -0.9437 H            1    LIG   0.0000
  16 H            1.1925     0.0377     1.1925 H            1    LIG   0.0000
  17 H            0.0377     1.1925     1.1925 H            1    LIG   0.0000
  18 H            2.8398     1.6851     1.6851 H            1    LIG   0.0000
  19 H            1.6851     2.8398     1.6851 H            1    LIG   0.0000
  20 H           -1.0736     0.4396     3.3090 H            1    LIG   0.0000
  21 H           -3.2640     1.3755     3.6178 H            1    LIG   0.0000
  22 H            0.6371     4.0673     4.3776 H            1    LIG   0.0000
  23 H           -1.4608     6.0895     3.9555 H            1    LIG   0.0000
  24 H           -0.8829     5.7483     5.4442 H            1    LIG   0.0000
  25 H           -3.0631     6.7964     5.5118 H            1    LIG   0.0000
  26 H           -3.0559     5.3341     6.2387 H            1    LIG   0.0000
  27 H           -4.8927     5.6481     4.6249 H            1    LIG   0.0000
  28 H           -3.7560     5.6371     3.4526 H            1    LIG   0.0000
  29 H           -4.3090     3.4802     5.2839 H            1    LIG   0.0000
  30 H           -4.5727     3.4507     3.6726 H            1    LIG   0.0000
@<TRIPOS>BOND
   1        1        2 1
   2        2        3 1
   3        3        4 1
   4        4        5 1
   5        5        6 ar
   6        6        7 ar
   7        7        8 ar
   8        8        9 ar
   9        9       10 ar
  10       10        5 ar
  11        9       11 1
  12       11       12 1
  13       12       13 1
  14       13       14 1
  15       14        8 1
  16        1       15 1
  17        2       16 1
  18        2       17 1
  19        3       18 1
  20        3       19 1
  21        6       20 1
  22        7       21 1
  23       10       22 1
  24       11       23 1
  25       11       24 1
  26       12       25 1
  27       12       26 1
  28       13       27 1
  29       13       28 1
  30       14       29 1
  31       14       30 1

@<TRIPOS>MOLECULE

  30   31
SMALL
USER_CHARGES
@<TRIPOS>ATOM
   1 O1           1.2733     1.2733    -0.3664 O.3          1    LIG   0.0000
   2 C2           1.0000     1.0000     1.0000 C.3          1    LIG   0.0000
   3 C3           1.8776     1.8776     1.8776 C.3          1    LIG   0.0000
   4 S4           1.5292     1.5292     3.6192 S.3          1    LIG   0.0000
   5 C5          -0.0660     2.1888     3.8262 C.ar         1    LIG   0.0000
   6 C6          -0.2235     3.5132     4.2200 C.ar         1    LIG   0.0000
   7 C7          -1.5058     4.0255     4.3728 C.ar         1    LIG   0.0000
   8 C8          -2.5980     3.2017     4.1301 C.ar         1    LIG   0.0000
   9 C9          -2.4345     1.8676     3.7583 C.ar         1    LIG   0.0000
  10 C10         -1.1512     1.3599     3.5915 C.ar         1    LIG   0.0000
  11 C11         -3.6331     0.9579     3.5426 C.3          1    LIG   0.0000
  12 C12         -4.8998     1.7566     3.2874 C.3          1    LIG   0.0000
  13 C13         -5.0398     2.7423     4.4366 C.3          1    LIG   0.0000
  14 C14         -3.9808     3.8171     4.2718 C.3          1    LIG   0.0000
  15 H            0.6959     0.6959    -0.9437 H            1    LIG   0.0000
  16 H            1.1925     0.0377     1.1925 H            1    LIG   0.0000
  17 H            0.0377     1.1925     1.1925 H            1    LIG   0.0000
  18 H            2.8398     1.6851     1.6851 H            1    LIG   0.0000
  19 H            1.6851     2.8398     1.6851 H            1    LIG   0.0000
  20 H            0.5758     4.0893     4.3910 H            1    LIG   0.0000
  21 H           -1.6410     4.9756     4.6540 H            1    LIG   0.0000
  22 H           -1.0134     0.4113     3.3066 H            1    LIG   0.0000
  23 H           -3.7636     0.3936     4.3578 H            1    LIG   0.0000
  24 H           -3.4561     0.3687     2.7542 H            1    LIG   0.0000
  25 H           -5.6914     1.1463     3.2596 H            1    LIG   0.0000
  26 H           -4.8273     2.2483     2.4196 H            1    LIG   0.0000
  27 H           -5.9493     3.1576     4.4173 H            1    LIG   0.0000
  28 H           -4.9082     2.2682     5.3071 H            1    LIG   0.0000
  29 H           -4.1849     4.3547     3.4537 H            1    LIG   0.0000
  30 H           -3.9926     4.4137     5.0742 H            1    LIG   0.0000
@<TRIPOS>BOND
   1        1        2 1
   2        2        3 1
   3        3        4 1
   4        4        5 1
   5        5        6 ar
   6        6        7 ar
   7        7        8 ar
   8        8        9 ar
   9        9       10 ar
  10       10        5 ar
  11        9       11 1
  12       11       12 1
  13       12       13 1
  14       13       14 1
  15       14        8 1
  16        1       15 1
  17        2       16 1
  18        2       17 1
  19        3       18 1
  20        3       19 1
  21        6       20 1
  22        7       21 1
  23       10       22 1
  24       11       23 1
  25       11       24 1
  26       12       25 1
  27       12       26 1
  28       13       27 1
  29       13       28 1
  30       14       29 1
  31       14       30 1

@<TRIPOS>MOLECULE

  30   31
SMALL
USER_CHARGES
@<TRIPOS>ATOM
   1 O1           1.2733     1.2733    -0.3664 O.3          1    LIG   0.0000
   2 C2           1.0000     1.0000     1.0000 C.3          1    LIG   0.0000
   3 C3           1.8776     1.8776     1.8776 C.3          1    LIG   0.0000
   4 S4           1.5292     1.5292     3.6192 S.3          1    LIG   0.0000
   5 C5           2.1888    -0.0660     3.8262 C.ar         1    LIG   0.0000
   6 C6           2.7892    -0.7134     2.7518 C.ar         1    LIG   0.0000
   7 C7           3.3178    -1.9846     2.9377 C.ar         1    LIG   0.0000
   8 C8           3.2319    -2.5775     4.1913 C.ar         1    LIG   0.0000
   9 C9           2.6078    -1.9337     5.2594 C.ar         1    LIG   0.0000
  10 C10          2.0921    -0.6558     5.0763 C.ar         1    LIG   0.0000
  11 C11          2.4730    -2.6080     6.6151 C.3          1    LIG   0.0000
  12 C12          3.4785    -3.7348     6.7791 C.3          1    LIG   0.0000
  13 C13          3.3076    -4.6574     5.5827 C.3          1    LIG   0.0000
  14 C14          3.8591    -3.9524     4.3569 C.3          1    LIG   0.0000
  15 H            0.6959     0.6959    -0.9437 H            1    LIG   0.0000
  16 H            1.1925     0.0377     1.1925 H            1    LIG   0.0000
  17 H            0.0377     1.1925     1.1925 H            1    LIG   0.0000
  18 H            2.8398     1.6851     1.6851 H            1    LIG   0.0000
  19 H            1.6851     2.8398     1.6851 H            1    LIG   0.0000
  20 H            2.8397    -0.2696     1.8571 H            1    LIG   0.0000
  21 H            3.7548    -2.4670     2.1785 H            1    LIG   0.0000
  22 H            1.6581    -0.1699     5.8349 H            1    LIG   0.0000
  23 H            1.5494    -2.9815     6.7017 H            1    LIG   0.0000
  24 H            2.6265    -1.9286     7.3326 H            1    LIG   0.0000
  25 H            3.2999    -4.2343     7.6268 H            1    LIG   0.0000
  26 H            4.4079    -3.3661     6.7989 H            1    LIG   0.0000
  27 H            3.8087    -5.5088     5.7376 H            1    LIG   0.0000
  28 H            2.3378    -4.8611     5.4483 H            1    LIG   0.0000
  29 H            4.8490    -3.8505     4.4559 H            1    LIG   0.0000
  30 H            3.6601    -4.5025     3.5460 H            1    LIG   0.0000
@<TRIPOS>BOND
   1        1        2 1
   2        2        3 1
   3        3        4 1
   4        4        5 1
   5        5        6 ar
   6        6        7 ar
   7        7        8 ar
   8        8        9 ar
   9        9       10 ar
  10       10        5 ar
  11        9       11 1
  12       11       12 1
  13       12       13 1
  14       13       14 1
  15       14        8 1
  16        1       15 1
  17        2       16 1
  18        2       17 1
  19        3       18 1
  20        3       19 1
  21        6       20 1
  22        7       21 1
  23       10       22 1
  24       11       23 1
  25       11       24 1
  26       12       25 1
  27       12       26 1
  28       13       27 1
  29       13       28 1
  30       14       29 1
  31       14       30 1

@<TRIPOS>MOLECULE

  30   31
SMALL
USER_CHARGES
@<TRIPOS>ATOM
   1 O1           1.2733     1.2733    -0.3664 O.3          1    LIG   0.0000
   2 C2           1.0000     1.0000     1.0000 C.3          1    LIG   0.0000
   3 C3           1.8776     1.8776     1.8776 C.3          1    LIG   0.0000
   4 S4           1.5292     1.5292     3.6192 S.3          1    LIG   0.0000
   5 C5           2.1888    -0.0660     3.8262 C.ar         1    LIG   0.0000
   6 C6           2.1149    -0.6919     5.0659 C.ar         1    LIG   0.0000
   7 C7           2.6402    -1.9698     5.2108 C.ar         1    LIG   0.0000
   8 C8           3.2274    -2.5893     4.1145 C.ar         1    LIG   0.0000
   9 C9           3.3201    -1.9480     2.8797 C.ar         1    LIG   0.0000
  10 C10          2.7812    -0.6751     2.7318 C.ar         1    LIG   0.0000
  11 C11          4.0080    -2.6114     1.6976 C.3          1    LIG   0.0000
  12 C12          4.0912    -4.1178     1.8752 C.3          1    LIG   0.0000
  13 C13          4.7472    -4.3683     3.2238 C.3          1    LIG   0.0000
  14 C14          3.7528    -4.0023     4.3106 C.3          1    LIG   0.0000
  15 H            0.6959     0.6959    -0.9437 H            1    LIG   0.0000
  16 H            1.1925     0.0377     1.1925 H            1    LIG   0.0000
  17 H            0.0377     1.1925     1.1925 H            1    LIG   0.0000
  18 H            2.8398     1.6851     1.6851 H            1    LIG   0.0000
  19 H            1.6851     2.8398     1.6851 H            1    LIG   0.0000
  20 H            1.6891    -0.2282     5.8428 H            1    LIG   0.0000
  21 H            2.5962    -2.4380     6.0933 H            1    LIG   0.0000
  22 H            2.8205    -0.2064     1.8493 H            1    LIG   0.0000
  23 H            4.9336    -2.2428     1.6115 H            1    LIG   0.0000
  24 H            3.4905    -2.4105     0.8658 H            1    LIG   0.0000
  25 H            4.6427    -4.5203     1.1446 H            1    LIG   0.0000
  26 H            3.1745    -4.5170     1.8594 H            1    LIG   0.0000
  27 H            4.9970    -5.3332     3.3047 H            1    LIG   0.0000
  28 H            5.5675    -3.8031     3.3114 H            1    LIG   0.0000
  29 H            2.9859    -4.6434     4.2816 H            1    LIG   0.0000
  30 H            4.2043    -4.0627     5.2009 H            1    LIG   0.0000
@<TRIPOS>BOND
   1        1        2 1
   2        2        3 1
   3        3        4 1
   4        4        5 1
   5        5        6 ar
   6        6        7 ar
   7        7        8 ar
   8        8        9 ar
   9        9       10 ar
  10       10        5 ar
  11        9       11 1
  12       11       12 1
  13       12       13 1
  14       13       14 1
  15       14        8 1
  16        1       15 1
  17        2       16 1
  18        2       17 1
  19        3       18 1
  20        3       19 1
  21        6       20 1
  22        7       21 1
  23       10       22 1
  24       11       23 1
  25       11       24 1
  26       12       25 1
  27       12       26 1
  28       13       27 1
  29       13       28 1
  30       14       29 1
  31       14       30 1

@<TRIPOS>MOLECULE

  30   31
SMALL
USER_CHARGES
@<TRIPOS>ATOM
   1 O1           1.2733     1.2733    -0.3664 O.3          1    LIG   0.0000
   2 C2           1.0000     1.0000     1.0000 C.3          1    LIG   0.0000
   3 C3           1.8776     1.8776     1.8776 C.3          1    LIG   0.0000
   4 S4           1.5292     1.5292     3.6192 S.3          1    LIG   0.0000
   5 C5           2.1888    -0.0660     3.8262 C.ar         1    LIG   0.0000
   6 C6           3.5149    -0.2236     4.2141 C.ar         1    LIG   0.0000
   7 C7           4.0227    -1.5057     4.3823 C.ar         1    LIG   0.0000
   8 C8           3.1937    -2.5977     4.1572 C.ar         1    LIG   0.0000
   9 C9           1.8714    -2.4346     3.7455 C.ar         1    LIG   0.0000
  10 C10          1.3599    -1.1512     3.5915 C.ar         1    LIG   0.0000
  11 C11          0.9843    -3.6339     3.4528 C.3          1    LIG   0.0000
  12 C12          1.5123    -4.8930     4.1187 C.3          1    LIG   0.0000
  13 C13          2.9624    -5.0460     3.6880 C.3          1    LIG   0.0000
  14 C14          3.7817    -3.9798     4.3920 C.3          1    LIG   0.0000
  15 H            0.6959     0.6959    -0.9437 H            1    LIG   0.0000
  16 H            1.1925     0.0377     1.1925 H            1    LIG   0.0000
  17 H            0.0377     1.1925     1.1925 H            1    LIG   0.0000
  18 H            2.8398     1.6851     1.6851 H            1    LIG   0.0000
  19 H            1.6851     2.8398     1.6851 H            1    LIG   0.0000
  20 H            4.0954     0.5756     4.3700 H            1    LIG   0.0000
  21 H            4.9733    -1.6410     4.6620 H            1    LIG   0.0000
  22 H            0.4086    -1.0134     3.3157 H            1    LIG   0.0000
  23 H            0.9502    -3.7792     2.4640 H            1    LIG   0.0000
  24 H            0.0630    -3.4476     3.7942 H            1    LIG   0.0000
  25 H            0.9804    -5.6868     3.8239 H            1    LIG   0.0000
  26 H            1.4565    -4.8051     5.1133 H            1    LIG   0.0000
  27 H            3.2972    -5.9532     3.9426 H            1    LIG   0.0000
  28 H            3.0353    -4.9297     2.6974 H            1    LIG   0.0000
  29 H            3.7903    -4.1691     5.3739 H            1    LIG   0.0000
  30 H            4.7176    -4.0011     4.0403 H            1    LIG   0.0000
@<TRIPOS>BOND
   1        1        2 1
   2        2        3 1
   3        3        4 1
   4        4        5 1
   5        5        6 ar
   6        6        7 ar
   7        7        8 ar
   8        8        9 ar
   9        9       10 ar
  10       10        5 ar
  11        9       11 1
  12       11       12 1
  13       12       13 1
  14       13       14 1
  15       14        8 1
  16        1       15 1
  17        2       16 1
  18        2       17 1
  19        3       18 1
  20        3       19 1
  21        6       20 1
  22        7       21 1
  23       10       22 1
  24       11       23 1
  25       11       24 1
  26       12       25 1
  27       12       26 1
  28       13       27 1
  29       13       28 1
  30       14       29 1
  31       14       30 1

@<TRIPOS>MOLECULE

  30   31
SMALL
USER_CHARGES
@<TRIPOS>ATOM
   1 O1           1.2733     1.2733    -0.3664 O.3          1    LIG   0.0000
   2 C2           1.0000     1.0000     1.0000 C.3          1    LIG   0.0000
   3 C3           1.8776     1.8776     1.8776 C.3          1    LIG   0.0000
   4 S4           1.5292     1.5292     3.6192 S.3          1    LIG   0.0000
   5 C5           2.1888    -0.0660     3.8262 C.ar         1    LIG   0.0000
   6 C6           1.3891    -1.1817     3.6036 C.ar         1    LIG   0.0000
   7 C7           1.9353    -2.4487     3.7662 C.ar         1    LIG   0.0000
   8 C8           3.2656    -2.5691     4.1487 C.ar         1    LIG   0.0000
   9 C9           4.0565    -1.4471     4.3936 C.ar         1    LIG   0.0000
  10 C10          3.5134    -0.1797     4.2165 C.ar         1    LIG   0.0000
  11 C11          5.4967    -1.5856     4.8599 C.3          1    LIG   0.0000
  12 C12          6.0574    -2.9596     4.5356 C.3          1    LIG   0.0000
  13 C13          5.0924    -3.9797     5.1186 C.3          1    LIG   0.0000
  14 C14          3.8302    -3.9749     4.2756 C.3          1    LIG   0.0000
  15 H            0.6959     0.6959    -0.9437 H            1    LIG   0.0000
  16 H            1.1925     0.0377     1.1925 H            1    LIG   0.0000
  17 H            0.0377     1.1925     1.1925 H            1    LIG   0.0000
  18 H            2.8398     1.6851     1.6851 H            1    LIG   0.0000
  19 H            1.6851     2.8398     1.6851 H            1    LIG   0.0000
  20 H            0.4334    -1.0734     3.3300 H            1    LIG   0.0000
  21 H            1.3778    -3.2641     3.6099 H            1    LIG   0.0000
  22 H            4.0700     0.6371     4.3685 H            1    LIG   0.0000
  23 H            5.5328    -1.4452     5.8493 H            1    LIG   0.0000
  24 H            6.0540    -0.8914     4.4042 H            1    LIG   0.0000
  25 H            6.9622    -3.0678     4.9475 H            1    LIG   0.0000
  26 H            6.1259    -3.0780     3.5450 H            1    LIG   0.0000
  27 H            5.5085    -4.8888     5.0996 H            1    LIG   0.0000
  28 H            4.8700    -3.7345     6.0622 H            1    LIG   0.0000
  29 H            4.0446    -4.3248     3.3637 H            1    LIG   0.0000
  30 H            3.1468    -4.5641     4.7065 H            1    LIG   0.0000
@<TRIPOS>BOND
   1        1        2 1
   2        2        3 1
   3        3        4 1
   4        4        5 1
   5        5        6 ar
   6        6        7 ar
   7        7        8 ar
   8        8        9 ar
   9        9       10 ar
  10       10        5 ar
  11        9       11 1
  12       11       12 1
  13       12       13 1
  14       13       14 1
  15       14        8 1
  16        1       15 1
  17        2       16 1
  18        2       17 1
  19        3       18 1
  20        3       19 1
  21        6       20 1
  22        7       21 1
  23       10       22 1
  24       11       23 1
  25       11       24 1
  26       12       25 1
  27       12       26 1
  28       13       27 1
  29       13       28 1
  30       14       29 1
  31       14       30 1

