@<TRIPOS>MOLECULE
*****
 30 31 0 0 0
SMALL
USER_CHARGES

@<TRIPOS>ATOM
      1 O1          1.2733    1.2733   -0.3664 O.3     1  LIG1        0.0000
      2 C2          1.0000    1.0000    1.0000 C.3     1  LIG1        0.0000
      3 C3          1.8776    1.8776    1.8776 C.3     1  LIG1        0.0000
      4 S4          1.5292    1.5292    3.6192 S.3     1  LIG1        0.0000
      5 C5          2.1888   -0.0660    3.8262 C.ar    1  LIG1        0.0000
      6 C6          2.7892   -0.7134    2.7518 C.ar    1  LIG1        0.0000
      7 C7          3.3178   -1.9846    2.9377 C.ar    1  LIG1        0.0000
      8 C8          3.2319   -2.5775    4.1913 C.ar    1  LIG1        0.0000
      9 C9          2.6078   -1.9337    5.2594 C.ar    1  LIG1        0.0000
     10 C10         2.0921   -0.6558    5.0763 C.ar    1  LIG1        0.0000
     11 C11         2.4730   -2.6080    6.6151 C.3     1  LIG1        0.0000
     12 C12         3.4785   -3.7348    6.7791 C.3     1  LIG1        0.0000
     13 C13         3.3076   -4.6574    5.5827 C.3     1  LIG1        0.0000
     14 C14         3.8591   -3.9524    4.3569 C.3     1  LIG1        0.0000
     15 H           0.6959    0.6959   -0.9437 H       1  LIG1        0.0000
     16 H           1.1925    0.0377    1.1925 H       1  LIG1        0.0000
     17 H           0.0377    1.1925    1.1925 H       1  LIG1        0.0000
     18 H           2.8398    1.6851    1.6851 H       1  LIG1        0.0000
     19 H           1.6851    2.8398    1.6851 H       1  LIG1        0.0000
     20 H           2.8397   -0.2696    1.8571 H       1  LIG1        0.0000
     21 H           3.7548   -2.4670    2.1785 H       1  LIG1        0.0000
     22 H           1.6581   -0.1699    5.8349 H       1  LIG1        0.0000
     23 H           1.5494   -2.9815    6.7017 H       1  LIG1        0.0000
     24 H           2.6265   -1.9286    7.3326 H       1  LIG1        0.0000
     25 H           3.2999   -4.2343    7.6268 H       1  LIG1        0.0000
     26 H           4.4079   -3.3661    6.7989 H       1  LIG1        0.0000
     27 H           3.8087   -5.5088    5.7376 H       1  LIG1        0.0000
     28 H           2.3378   -4.8611    5.4483 H       1  LIG1        0.0000
     29 H           4.8490   -3.8505    4.4559 H       1  LIG1        0.0000
     30 H           3.6601   -4.5025    3.5460 H       1  LIG1        0.0000
@<TRIPOS>BOND
     1     1     2    1
     2     2     3    1
     3     3     4    1
     4     4     5    1
     5     5     6   ar
     6     6     7   ar
     7     7     8   ar
     8     8     9   ar
     9     9    10   ar
    10    10     5   ar
    11     9    11    1
    12    11    12    1
    13    12    13    1
    14    13    14    1
    15    14     8    1
    16     1    15    1
    17     2    16    1
    18     2    17    1
    19     3    18    1
    20     3    19    1
    21     6    20    1
    22     7    21    1
    23    10    22    1
    24    11    23    1
    25    11    24    1
    26    12    25    1
    27    12    26    1
    28    13    27    1
    29    13    28    1
    30    14    29    1
    31    14    30    1
