@<TRIPOS>MOLECULE
*****
 30 31 0 0 0
SMALL
USER_CHARGES

@<TRIPOS>ATOM
      1 O1          1.2733    1.2733   -0.3664 O.3     1  LIG1        0.0000
      2 C2          1.0000    1.0000    1.0000 C.3     1  LIG1        0.0000
      3 C3          1.8776    1.8776    1.8776 C.3     1  LIG1        0.0000
      4 S4          1.5292    1.5292    3.6192 S.3     1  LIG1        0.0000
      5 C5          2.1888   -0.0660    3.8262 C.ar    1  LIG1        0.0000
      6 C6          2.1149   -0.6919    5.0659 C.ar    1  LIG1        0.0000
      7 C7          2.6402   -1.9698    5.2108 C.ar    1  LIG1        0.0000
      8 C8          3.2274   -2.5893    4.1145 C.ar    1  LIG1        0.0000
      9 C9          3.3201   -1.9480    2.8797 C.ar    1  LIG1        0.0000
     10 C10         2.7812   -0.6751    2.7318 C.ar    1  LIG1        0.0000
     11 C11         4.0080   -2.6114    1.6976 C.3     1  LIG1        0.0000
     12 C12         4.0912   -4.1178    1.8752 C.3     1  LIG1        0.0000
     13 C13         4.7472   -4.3683    3.2238 C.3     1  LIG1        0.0000
     14 C14         3.7528   -4.0023    4.3106 C.3     1  LIG1        0.0000
     15 H           0.6959    0.6959   -0.9437 H       1  LIG1        0.0000
     16 H           1.1925    0.0377    1.1925 H       1  LIG1        0.0000
     17 H           0.0377    1.1925    1.1925 H       1  LIG1        0.0000
     18 H           2.8398    1.6851    1.6851 H       1  LIG1        0.0000
     19 H           1.6851    2.8398    1.6851 H       1  LIG1        0.0000
     20 H           1.6891   -0.2282    5.8428 H       1  LIG1        0.0000
     21 H           2.5962   -2.4380    6.0933 H       1  LIG1        0.0000
     22 H           2.8205   -0.2064    1.8493 H       1  LIG1        0.0000
     23 H           4.9336   -2.2428    1.6115 H       1  LIG1        0.0000
     24 H           3.4905   -2.4105    0.8658 H       1  LIG1        0.0000
     25 H           4.6427   -4.5203    1.1446 H       1  LIG1        0.0000
     26 H           3.1745   -4.5170    1.8594 H       1  LIG1        0.0000
     27 H           4.9970   -5.3332    3.3047 H       1  LIG1        0.0000
     28 H           5.5675   -3.8031    3.3114 H       1  LIG1        0.0000
     29 H           2.9859   -4.6434    4.2816 H       1  LIG1        0.0000
     30 H           4.2043   -4.0627    5.2009 H       1  LIG1        0.0000
@<TRIPOS>BOND
     1     1     2    1
     2     2     3    1
     3     3     4    1
     4     4     5    1
     5     5     6   ar
     6     6     7   ar
     7     7     8   ar
     8     8     9   ar
     9     9    10   ar
    10    10     5   ar
    11     9    11    1
    12    11    12    1
    13    12    13    1
    14    13    14    1
    15    14     8    1
    16     1    15    1
    17     2    16    1
    18     2    17    1
    19     3    18    1
    20     3    19    1
    21     6    20    1
    22     7    21    1
    23    10    22    1
    24    11    23    1
    25    11    24    1
    26    12    25    1
    27    12    26    1
    28    13    27    1
    29    13    28    1
    30    14    29    1
    31    14    30    1
