@<TRIPOS>MOLECULE
*****
 30 31 0 0 0
SMALL
USER_CHARGES

@<TRIPOS>ATOM
      1 O1          1.2733    1.2733   -0.3664 O.3     1  LIG1        0.0000
      2 C2          1.0000    1.0000    1.0000 C.3     1  LIG1        0.0000
      3 C3          1.8776    1.8776    1.8776 C.3     1  LIG1        0.0000
      4 S4          1.5292    1.5292    3.6192 S.3     1  LIG1        0.0000
      5 C5          2.6107    2.6107    4.4460 C.ar    1  LIG1        0.0000
      6 C6          3.4497    3.4454    3.7157 C.ar    1  LIG1        0.0000
      7 C7          4.3017    4.3087    4.3931 C.ar    1  LIG1        0.0000
      8 C8          4.2952    4.3152    5.7825 C.ar    1  LIG1        0.0000
      9 C9          3.4689    3.4594    6.5102 C.ar    1  LIG1        0.0000
     10 C10         2.6063    2.6063    5.8316 C.ar    1  LIG1        0.0000
     11 C11         3.5024    3.4362    8.0298 C.3     1  LIG1        0.0000
     12 C12         4.1009    4.7136    8.5933 C.3     1  LIG1        0.0000
     13 C13         5.4529    4.9012    7.9235 C.3     1  LIG1        0.0000
     14 C14         5.2156    5.3042    6.4795 C.3     1  LIG1        0.0000
     15 H           0.6959    0.6959   -0.9437 H       1  LIG1        0.0000
     16 H           1.1925    0.0377    1.1925 H       1  LIG1        0.0000
     17 H           0.0377    1.1925    1.1925 H       1  LIG1        0.0000
     18 H           2.8398    1.6851    1.6851 H       1  LIG1        0.0000
     19 H           1.6851    2.8398    1.6851 H       1  LIG1        0.0000
     20 H           3.4399    3.4244    2.7160 H       1  LIG1        0.0000
     21 H           4.9121    4.9179    3.8870 H       1  LIG1        0.0000
     22 H           1.9921    1.9989    6.3355 H       1  LIG1        0.0000
     23 H           4.0543    2.6585    8.3307 H       1  LIG1        0.0000
     24 H           2.5689    3.3354    8.3738 H       1  LIG1        0.0000
     25 H           4.2160    4.6319    9.5832 H       1  LIG1        0.0000
     26 H           3.5057    5.4910    8.3899 H       1  LIG1        0.0000
     27 H           5.9675    5.6176    8.3946 H       1  LIG1        0.0000
     28 H           5.9682    4.0448    7.9555 H       1  LIG1        0.0000
     29 H           4.7967    6.2119    6.4580 H       1  LIG1        0.0000
     30 H           6.0921    5.3300    5.9989 H       1  LIG1        0.0000
@<TRIPOS>BOND
     1     1     2    1
     2     2     3    1
     3     3     4    1
     4     4     5    1
     5     5     6   ar
     6     6     7   ar
     7     7     8   ar
     8     8     9   ar
     9     9    10   ar
    10    10     5   ar
    11     9    11    1
    12    11    12    1
    13    12    13    1
    14    13    14    1
    15    14     8    1
    16     1    15    1
    17     2    16    1
    18     2    17    1
    19     3    18    1
    20     3    19    1
    21     6    20    1
    22     7    21    1
    23    10    22    1
    24    11    23    1
    25    11    24    1
    26    12    25    1
    27    12    26    1
    28    13    27    1
    29    13    28    1
    30    14    29    1
    31    14    30    1
