@<TRIPOS>MOLECULE
*****
 30 31 0 0 0
SMALL
USER_CHARGES

@<TRIPOS>ATOM
      1 O1          1.2733    1.2733   -0.3664 O.3     1  LIG1        0.0000
      2 C2          1.0000    1.0000    1.0000 C.3     1  LIG1        0.0000
      3 C3          1.8776    1.8776    1.8776 C.3     1  LIG1        0.0000
      4 S4          1.5292    1.5292    3.6192 S.3     1  LIG1        0.0000
      5 C5         -0.0660    2.1888    3.8262 C.ar    1  LIG1        0.0000
      6 C6         -1.1818    1.3909    3.5977 C.ar    1  LIG1        0.0000
      7 C7         -2.4486    1.9325    3.7757 C.ar    1  LIG1        0.0000
      8 C8         -2.5689    3.2576    4.1757 C.ar    1  LIG1        0.0000
      9 C9         -1.4472    4.0603    4.3807 C.ar    1  LIG1        0.0000
     10 C10        -0.1797    3.5134    4.2165 C.ar    1  LIG1        0.0000
     11 C11        -1.5863    5.5232    4.7700 C.3     1  LIG1        0.0000
     12 C12        -2.9528    5.8131    5.3669 C.3     1  LIG1        0.0000
     13 C13        -3.9858    5.3124    4.3700 C.3     1  LIG1        0.0000
     14 C14        -3.9739    3.7948    4.3958 C.3     1  LIG1        0.0000
     15 H           0.6959    0.6959   -0.9437 H       1  LIG1        0.0000
     16 H           1.1925    0.0377    1.1925 H       1  LIG1        0.0000
     17 H           0.0377    1.1925    1.1925 H       1  LIG1        0.0000
     18 H           2.8398    1.6851    1.6851 H       1  LIG1        0.0000
     19 H           1.6851    2.8398    1.6851 H       1  LIG1        0.0000
     20 H          -1.0736    0.4396    3.3090 H       1  LIG1        0.0000
     21 H          -3.2640    1.3755    3.6178 H       1  LIG1        0.0000
     22 H           0.6371    4.0673    4.3776 H       1  LIG1        0.0000
     23 H          -1.4608    6.0895    3.9555 H       1  LIG1        0.0000
     24 H          -0.8829    5.7483    5.4442 H       1  LIG1        0.0000
     25 H          -3.0631    6.7964    5.5118 H       1  LIG1        0.0000
     26 H          -3.0559    5.3341    6.2387 H       1  LIG1        0.0000
     27 H          -4.8927    5.6481    4.6249 H       1  LIG1        0.0000
     28 H          -3.7560    5.6371    3.4526 H       1  LIG1        0.0000
     29 H          -4.3090    3.4802    5.2839 H       1  LIG1        0.0000
     30 H          -4.5727    3.4507    3.6726 H       1  LIG1        0.0000
@<TRIPOS>BOND
     1     1     2    1
     2     2     3    1
     3     3     4    1
     4     4     5    1
     5     5     6   ar
     6     6     7   ar
     7     7     8   ar
     8     8     9   ar
     9     9    10   ar
    10    10     5   ar
    11     9    11    1
    12    11    12    1
    13    12    13    1
    14    13    14    1
    15    14     8    1
    16     1    15    1
    17     2    16    1
    18     2    17    1
    19     3    18    1
    20     3    19    1
    21     6    20    1
    22     7    21    1
    23    10    22    1
    24    11    23    1
    25    11    24    1
    26    12    25    1
    27    12    26    1
    28    13    27    1
    29    13    28    1
    30    14    29    1
    31    14    30    1
