@<TRIPOS>MOLECULE
*****
 30 31 0 0 0
SMALL
USER_CHARGES

@<TRIPOS>ATOM
      1 O1          1.2733    1.2733   -0.3664 O.3     1  LIG1        0.0000
      2 C2          1.0000    1.0000    1.0000 C.3     1  LIG1        0.0000
      3 C3          1.8776    1.8776    1.8776 C.3     1  LIG1        0.0000
      4 S4          1.5292    1.5292    3.6192 S.3     1  LIG1        0.0000
      5 C5          2.6107    2.6107    4.4460 C.ar    1  LIG1        0.0000
      6 C6          2.6349    2.6393    5.8361 C.ar    1  LIG1        0.0000
      7 C7          3.5111    3.5041    6.4798 C.ar    1  LIG1        0.0000
      8 C8          4.3396    4.3196    5.7187 C.ar    1  LIG1        0.0000
      9 C9          4.2946    4.3041    4.3250 C.ar    1  LIG1        0.0000
     10 C10         3.4280    3.4280    3.6817 C.ar    1  LIG1        0.0000
     11 C11         5.1680    5.2342    3.4987 C.3     1  LIG1        0.0000
     12 C12         6.3546    5.7419    4.2999 C.3     1  LIG1        0.0000
     13 C13         5.7979    6.3496    5.5776 C.3     1  LIG1        0.0000
     14 C14         5.3092    5.2205    6.4665 C.3     1  LIG1        0.0000
     15 H           0.6959    0.6959   -0.9437 H       1  LIG1        0.0000
     16 H           1.1925    0.0377    1.1925 H       1  LIG1        0.0000
     17 H           0.0377    1.1925    1.1925 H       1  LIG1        0.0000
     18 H           2.8398    1.6851    1.6851 H       1  LIG1        0.0000
     19 H           1.6851    2.8398    1.6851 H       1  LIG1        0.0000
     20 H           2.0295    2.0450    6.3655 H       1  LIG1        0.0000
     21 H           3.5452    3.5393    7.4786 H       1  LIG1        0.0000
     22 H           3.3949    3.3882    2.6831 H       1  LIG1        0.0000
     23 H           4.6194    6.0153    3.2003 H       1  LIG1        0.0000
     24 H           5.5047    4.7381    2.6984 H       1  LIG1        0.0000
     25 H           6.8510    6.4351    3.7773 H       1  LIG1        0.0000
     26 H           6.9706    4.9852    4.5190 H       1  LIG1        0.0000
     27 H           6.5146    6.8645    6.0477 H       1  LIG1        0.0000
     28 H           5.0375    6.9610    5.3582 H       1  LIG1        0.0000
     29 H           6.0936    4.6783    6.7675 H       1  LIG1        0.0000
     30 H           4.8466    5.6087    7.2636 H       1  LIG1        0.0000
@<TRIPOS>BOND
     1     1     2    1
     2     2     3    1
     3     3     4    1
     4     4     5    1
     5     5     6   ar
     6     6     7   ar
     7     7     8   ar
     8     8     9   ar
     9     9    10   ar
    10    10     5   ar
    11     9    11    1
    12    11    12    1
    13    12    13    1
    14    13    14    1
    15    14     8    1
    16     1    15    1
    17     2    16    1
    18     2    17    1
    19     3    18    1
    20     3    19    1
    21     6    20    1
    22     7    21    1
    23    10    22    1
    24    11    23    1
    25    11    24    1
    26    12    25    1
    27    12    26    1
    28    13    27    1
    29    13    28    1
    30    14    29    1
    31    14    30    1
