@<TRIPOS>MOLECULE
*****
 30 31 0 0 0
SMALL
USER_CHARGES

@<TRIPOS>ATOM
      1 O1          1.2733    1.2733   -0.3664 O.3     1  LIG1        0.0000
      2 C2          1.0000    1.0000    1.0000 C.3     1  LIG1        0.0000
      3 C3          1.8776    1.8776    1.8776 C.3     1  LIG1        0.0000
      4 S4          1.5292    1.5292    3.6192 S.3     1  LIG1        0.0000
      5 C5          2.1888   -0.0660    3.8262 C.ar    1  LIG1        0.0000
      6 C6          3.5149   -0.2236    4.2141 C.ar    1  LIG1        0.0000
      7 C7          4.0227   -1.5057    4.3823 C.ar    1  LIG1        0.0000
      8 C8          3.1937   -2.5977    4.1572 C.ar    1  LIG1        0.0000
      9 C9          1.8714   -2.4346    3.7455 C.ar    1  LIG1        0.0000
     10 C10         1.3599   -1.1512    3.5915 C.ar    1  LIG1        0.0000
     11 C11         0.9843   -3.6339    3.4528 C.3     1  LIG1        0.0000
     12 C12         1.5123   -4.8930    4.1187 C.3     1  LIG1        0.0000
     13 C13         2.9624   -5.0460    3.6880 C.3     1  LIG1        0.0000
     14 C14         3.7817   -3.9798    4.3920 C.3     1  LIG1        0.0000
     15 H           0.6959    0.6959   -0.9437 H       1  LIG1        0.0000
     16 H           1.1925    0.0377    1.1925 H       1  LIG1        0.0000
     17 H           0.0377    1.1925    1.1925 H       1  LIG1        0.0000
     18 H           2.8398    1.6851    1.6851 H       1  LIG1        0.0000
     19 H           1.6851    2.8398    1.6851 H       1  LIG1        0.0000
     20 H           4.0954    0.5756    4.3700 H       1  LIG1        0.0000
     21 H           4.9733   -1.6410    4.6620 H       1  LIG1        0.0000
     22 H           0.4086   -1.0134    3.3157 H       1  LIG1        0.0000
     23 H           0.9502   -3.7792    2.4640 H       1  LIG1        0.0000
     24 H           0.0630   -3.4476    3.7942 H       1  LIG1        0.0000
     25 H           0.9804   -5.6868    3.8239 H       1  LIG1        0.0000
     26 H           1.4565   -4.8051    5.1133 H       1  LIG1        0.0000
     27 H           3.2972   -5.9532    3.9426 H       1  LIG1        0.0000
     28 H           3.0353   -4.9297    2.6974 H       1  LIG1        0.0000
     29 H           3.7903   -4.1691    5.3739 H       1  LIG1        0.0000
     30 H           4.7176   -4.0011    4.0403 H       1  LIG1        0.0000
@<TRIPOS>BOND
     1     1     2    1
     2     2     3    1
     3     3     4    1
     4     4     5    1
     5     5     6   ar
     6     6     7   ar
     7     7     8   ar
     8     8     9   ar
     9     9    10   ar
    10    10     5   ar
    11     9    11    1
    12    11    12    1
    13    12    13    1
    14    13    14    1
    15    14     8    1
    16     1    15    1
    17     2    16    1
    18     2    17    1
    19     3    18    1
    20     3    19    1
    21     6    20    1
    22     7    21    1
    23    10    22    1
    24    11    23    1
    25    11    24    1
    26    12    25    1
    27    12    26    1
    28    13    27    1
    29    13    28    1
    30    14    29    1
    31    14    30    1
