@<TRIPOS>MOLECULE
*****
 30 31 0 0 0
SMALL
USER_CHARGES

@<TRIPOS>ATOM
      1 O1          1.2733    1.2733   -0.3664 O.3     1  LIG1        0.0000
      2 C2          1.0000    1.0000    1.0000 C.3     1  LIG1        0.0000
      3 C3          1.8776    1.8776    1.8776 C.3     1  LIG1        0.0000
      4 S4          1.5292    1.5292    3.6192 S.3     1  LIG1        0.0000
      5 C5          2.6107    2.6107    4.4460 C.ar    1  LIG1        0.0000
      6 C6          3.8935    2.1891    4.7786 C.ar    1  LIG1        0.0000
      7 C7          4.7467    3.0694    5.4321 C.ar    1  LIG1        0.0000
      8 C8          4.2965    4.3478    5.7382 C.ar    1  LIG1        0.0000
      9 C9          3.0013    4.7577    5.4235 C.ar    1  LIG1        0.0000
     10 C10         2.1531    3.8811    4.7566 C.ar    1  LIG1        0.0000
     11 C11         2.4984    6.1405    5.8054 C.3     1  LIG1        0.0000
     12 C12         3.6479    7.0990    6.0654 C.3     1  LIG1        0.0000
     13 C13         4.5514    6.4371    7.0937 C.3     1  LIG1        0.0000
     14 C14         5.2782    5.2887    6.4179 C.3     1  LIG1        0.0000
     15 H           0.6959    0.6959   -0.9437 H       1  LIG1        0.0000
     16 H           1.1925    0.0377    1.1925 H       1  LIG1        0.0000
     17 H           0.0377    1.1925    1.1925 H       1  LIG1        0.0000
     18 H           2.8398    1.6851    1.6851 H       1  LIG1        0.0000
     19 H           1.6851    2.8398    1.6851 H       1  LIG1        0.0000
     20 H           4.1978    1.2643    4.5504 H       1  LIG1        0.0000
     21 H           5.6735    2.7866    5.6791 H       1  LIG1        0.0000
     22 H           1.2272    4.1630    4.5051 H       1  LIG1        0.0000
     23 H           1.9431    6.0669    6.6338 H       1  LIG1        0.0000
     24 H           1.9381    6.5000    5.0593 H       1  LIG1        0.0000
     25 H           3.2990    7.9658    6.4216 H       1  LIG1        0.0000
     26 H           4.1544    7.2659    5.2195 H       1  LIG1        0.0000
     27 H           5.2147    7.1011    7.4388 H       1  LIG1        0.0000
     28 H           4.0017    6.0894    7.8533 H       1  LIG1        0.0000
     29 H           5.9061    5.6572    5.7324 H       1  LIG1        0.0000
     30 H           5.7964    4.7799    7.1053 H       1  LIG1        0.0000
@<TRIPOS>BOND
     1     1     2    1
     2     2     3    1
     3     3     4    1
     4     4     5    1
     5     5     6   ar
     6     6     7   ar
     7     7     8   ar
     8     8     9   ar
     9     9    10   ar
    10    10     5   ar
    11     9    11    1
    12    11    12    1
    13    12    13    1
    14    13    14    1
    15    14     8    1
    16     1    15    1
    17     2    16    1
    18     2    17    1
    19     3    18    1
    20     3    19    1
    21     6    20    1
    22     7    21    1
    23    10    22    1
    24    11    23    1
    25    11    24    1
    26    12    25    1
    27    12    26    1
    28    13    27    1
    29    13    28    1
    30    14    29    1
    31    14    30    1
