@<TRIPOS>MOLECULE
*****
 30 31 0 0 0
SMALL
USER_CHARGES

@<TRIPOS>ATOM
      1 O1          1.2733    1.2733   -0.3664 O.3     1  LIG1        0.0000
      2 C2          1.0000    1.0000    1.0000 C.3     1  LIG1        0.0000
      3 C3          1.8776    1.8776    1.8776 C.3     1  LIG1        0.0000
      4 S4          1.5292    1.5292    3.6192 S.3     1  LIG1        0.0000
      5 C5         -0.0660    2.1888    3.8262 C.ar    1  LIG1        0.0000
      6 C6         -0.2235    3.5132    4.2200 C.ar    1  LIG1        0.0000
      7 C7         -1.5058    4.0255    4.3728 C.ar    1  LIG1        0.0000
      8 C8         -2.5980    3.2017    4.1301 C.ar    1  LIG1        0.0000
      9 C9         -2.4345    1.8676    3.7583 C.ar    1  LIG1        0.0000
     10 C10        -1.1512    1.3599    3.5915 C.ar    1  LIG1        0.0000
     11 C11        -3.6331    0.9579    3.5426 C.3     1  LIG1        0.0000
     12 C12        -4.8998    1.7566    3.2874 C.3     1  LIG1        0.0000
     13 C13        -5.0398    2.7423    4.4366 C.3     1  LIG1        0.0000
     14 C14        -3.9808    3.8171    4.2718 C.3     1  LIG1        0.0000
     15 H           0.6959    0.6959   -0.9437 H       1  LIG1        0.0000
     16 H           1.1925    0.0377    1.1925 H       1  LIG1        0.0000
     17 H           0.0377    1.1925    1.1925 H       1  LIG1        0.0000
     18 H           2.8398    1.6851    1.6851 H       1  LIG1        0.0000
     19 H           1.6851    2.8398    1.6851 H       1  LIG1        0.0000
     20 H           0.5758    4.0893    4.3910 H       1  LIG1        0.0000
     21 H          -1.6410    4.9756    4.6540 H       1  LIG1        0.0000
     22 H          -1.0134    0.4113    3.3066 H       1  LIG1        0.0000
     23 H          -3.7636    0.3936    4.3578 H       1  LIG1        0.0000
     24 H          -3.4561    0.3687    2.7542 H       1  LIG1        0.0000
     25 H          -5.6914    1.1463    3.2596 H       1  LIG1        0.0000
     26 H          -4.8273    2.2483    2.4196 H       1  LIG1        0.0000
     27 H          -5.9493    3.1576    4.4173 H       1  LIG1        0.0000
     28 H          -4.9082    2.2682    5.3071 H       1  LIG1        0.0000
     29 H          -4.1849    4.3547    3.4537 H       1  LIG1        0.0000
     30 H          -3.9926    4.4137    5.0742 H       1  LIG1        0.0000
@<TRIPOS>BOND
     1     1     2    1
     2     2     3    1
     3     3     4    1
     4     4     5    1
     5     5     6   ar
     6     6     7   ar
     7     7     8   ar
     8     8     9   ar
     9     9    10   ar
    10    10     5   ar
    11     9    11    1
    12    11    12    1
    13    12    13    1
    14    13    14    1
    15    14     8    1
    16     1    15    1
    17     2    16    1
    18     2    17    1
    19     3    18    1
    20     3    19    1
    21     6    20    1
    22     7    21    1
    23    10    22    1
    24    11    23    1
    25    11    24    1
    26    12    25    1
    27    12    26    1
    28    13    27    1
    29    13    28    1
    30    14    29    1
    31    14    30    1
