@<TRIPOS>MOLECULE
*****
 30 31 0 0 0
SMALL
USER_CHARGES

@<TRIPOS>ATOM
      1 O1          1.2733    1.2733   -0.3664 O.3     1  LIG1        0.0000
      2 C2          1.0000    1.0000    1.0000 C.3     1  LIG1        0.0000
      3 C3          1.8776    1.8776    1.8776 C.3     1  LIG1        0.0000
      4 S4          1.5292    1.5292    3.6192 S.3     1  LIG1        0.0000
      5 C5          2.1888   -0.0660    3.8262 C.ar    1  LIG1        0.0000
      6 C6          1.3891   -1.1817    3.6036 C.ar    1  LIG1        0.0000
      7 C7          1.9353   -2.4487    3.7662 C.ar    1  LIG1        0.0000
      8 C8          3.2656   -2.5691    4.1487 C.ar    1  LIG1        0.0000
      9 C9          4.0565   -1.4471    4.3936 C.ar    1  LIG1        0.0000
     10 C10         3.5134   -0.1797    4.2165 C.ar    1  LIG1        0.0000
     11 C11         5.4967   -1.5856    4.8599 C.3     1  LIG1        0.0000
     12 C12         6.0574   -2.9596    4.5356 C.3     1  LIG1        0.0000
     13 C13         5.0924   -3.9797    5.1186 C.3     1  LIG1        0.0000
     14 C14         3.8302   -3.9749    4.2756 C.3     1  LIG1        0.0000
     15 H           0.6959    0.6959   -0.9437 H       1  LIG1        0.0000
     16 H           1.1925    0.0377    1.1925 H       1  LIG1        0.0000
     17 H           0.0377    1.1925    1.1925 H       1  LIG1        0.0000
     18 H           2.8398    1.6851    1.6851 H       1  LIG1        0.0000
     19 H           1.6851    2.8398    1.6851 H       1  LIG1        0.0000
     20 H           0.4334   -1.0734    3.3300 H       1  LIG1        0.0000
     21 H           1.3778   -3.2641    3.6099 H       1  LIG1        0.0000
     22 H           4.0700    0.6371    4.3685 H       1  LIG1        0.0000
     23 H           5.5328   -1.4452    5.8493 H       1  LIG1        0.0000
     24 H           6.0540   -0.8914    4.4042 H       1  LIG1        0.0000
     25 H           6.9622   -3.0678    4.9475 H       1  LIG1        0.0000
     26 H           6.1259   -3.0780    3.5450 H       1  LIG1        0.0000
     27 H           5.5085   -4.8888    5.0996 H       1  LIG1        0.0000
     28 H           4.8700   -3.7345    6.0622 H       1  LIG1        0.0000
     29 H           4.0446   -4.3248    3.3637 H       1  LIG1        0.0000
     30 H           3.1468   -4.5641    4.7065 H       1  LIG1        0.0000
@<TRIPOS>BOND
     1     1     2    1
     2     2     3    1
     3     3     4    1
     4     4     5    1
     5     5     6   ar
     6     6     7   ar
     7     7     8   ar
     8     8     9   ar
     9     9    10   ar
    10    10     5   ar
    11     9    11    1
    12    11    12    1
    13    12    13    1
    14    13    14    1
    15    14     8    1
    16     1    15    1
    17     2    16    1
    18     2    17    1
    19     3    18    1
    20     3    19    1
    21     6    20    1
    22     7    21    1
    23    10    22    1
    24    11    23    1
    25    11    24    1
    26    12    25    1
    27    12    26    1
    28    13    27    1
    29    13    28    1
    30    14    29    1
    31    14    30    1
