@<TRIPOS>MOLECULE
*****
 30 31 0 0 0
SMALL
USER_CHARGES

@<TRIPOS>ATOM
      1 O1          1.2733    1.2733   -0.3664 O.3     1  LIG1        0.0000
      2 C2          1.0000    1.0000    1.0000 C.3     1  LIG1        0.0000
      3 C3          1.8776    1.8776    1.8776 C.3     1  LIG1        0.0000
      4 S4          1.5292    1.5292    3.6192 S.3     1  LIG1        0.0000
      5 C5         -0.0660    2.1888    3.8262 C.ar    1  LIG1        0.0000
      6 C6         -0.7109    2.7946    2.7534 C.ar    1  LIG1        0.0000
      7 C7         -1.9885    3.3091    2.9352 C.ar    1  LIG1        0.0000
      8 C8         -2.5888    3.2070    4.1841 C.ar    1  LIG1        0.0000
      9 C9         -1.9284    2.6196    5.2628 C.ar    1  LIG1        0.0000
     10 C10        -0.6558    2.0921    5.0763 C.ar    1  LIG1        0.0000
     11 C11        -2.5708    2.5556    6.6390 C.3     1  LIG1        0.0000
     12 C12        -4.0793    2.7149    6.5575 C.3     1  LIG1        0.0000
     13 C13        -4.3472    3.9952    5.7823 C.3     1  LIG1        0.0000
     14 C14        -4.0022    3.7486    4.3249 C.3     1  LIG1        0.0000
     15 H           0.6959    0.6959   -0.9437 H       1  LIG1        0.0000
     16 H           1.1925    0.0377    1.1925 H       1  LIG1        0.0000
     17 H           0.0377    1.1925    1.1925 H       1  LIG1        0.0000
     18 H           2.8398    1.6851    1.6851 H       1  LIG1        0.0000
     19 H           1.6851    2.8398    1.6851 H       1  LIG1        0.0000
     20 H          -0.2609    2.8590    1.8627 H       1  LIG1        0.0000
     21 H          -2.4703    3.7475    2.1764 H       1  LIG1        0.0000
     22 H          -0.1736    1.6497    5.8325 H       1  LIG1        0.0000
     23 H          -2.1968    3.2890    7.2066 H       1  LIG1        0.0000
     24 H          -2.3595    1.6712    7.0553 H       1  LIG1        0.0000
     25 H          -4.4681    2.7816    7.4764 H       1  LIG1        0.0000
     26 H          -4.4823    1.9336    6.0809 H       1  LIG1        0.0000
     27 H          -5.3121    4.2447    5.8641 H       1  LIG1        0.0000
     28 H          -3.7798    4.7349    6.1440 H       1  LIG1        0.0000
     29 H          -4.6462    3.0852    3.9440 H       1  LIG1        0.0000
     30 H          -4.0741    4.6098    3.8216 H       1  LIG1        0.0000
@<TRIPOS>BOND
     1     1     2    1
     2     2     3    1
     3     3     4    1
     4     4     5    1
     5     5     6   ar
     6     6     7   ar
     7     7     8   ar
     8     8     9   ar
     9     9    10   ar
    10    10     5   ar
    11     9    11    1
    12    11    12    1
    13    12    13    1
    14    13    14    1
    15    14     8    1
    16     1    15    1
    17     2    16    1
    18     2    17    1
    19     3    18    1
    20     3    19    1
    21     6    20    1
    22     7    21    1
    23    10    22    1
    24    11    23    1
    25    11    24    1
    26    12    25    1
    27    12    26    1
    28    13    27    1
    29    13    28    1
    30    14    29    1
    31    14    30    1
