@<TRIPOS>MOLECULE
*****
 30 31 0 0 0
SMALL
USER_CHARGES

@<TRIPOS>ATOM
      1 O1          1.2733    1.2733   -0.3664 O.3     1  LIG1        0.0000
      2 C2          1.0000    1.0000    1.0000 C.3     1  LIG1        0.0000
      3 C3          1.8776    1.8776    1.8776 C.3     1  LIG1        0.0000
      4 S4          1.5292    1.5292    3.6192 S.3     1  LIG1        0.0000
      5 C5         -0.0660    2.1888    3.8262 C.ar    1  LIG1        0.0000
      6 C6         -0.6943    2.1095    5.0643 C.ar    1  LIG1        0.0000
      7 C7         -1.9659    2.6489    5.2133 C.ar    1  LIG1        0.0000
      8 C8         -2.5781    3.2523    4.1217 C.ar    1  LIG1        0.0000
      9 C9         -1.9533    3.3083    2.8763 C.ar    1  LIG1        0.0000
     10 C10        -0.6751    2.7812    2.7318 C.ar    1  LIG1        0.0000
     11 C11        -2.6487    3.9255    1.6736 C.3     1  LIG1        0.0000
     12 C12        -3.7733    4.8548    2.0969 C.3     1  LIG1        0.0000
     13 C13        -4.6784    4.0596    3.0243 C.3     1  LIG1        0.0000
     14 C14        -3.9525    3.8633    4.3427 C.3     1  LIG1        0.0000
     15 H           0.6959    0.6959   -0.9437 H       1  LIG1        0.0000
     16 H           1.1925    0.0377    1.1925 H       1  LIG1        0.0000
     17 H           0.0377    1.1925    1.1925 H       1  LIG1        0.0000
     18 H           2.8398    1.6851    1.6851 H       1  LIG1        0.0000
     19 H           1.6851    2.8398    1.6851 H       1  LIG1        0.0000
     20 H          -0.2369    1.6698    5.8372 H       1  LIG1        0.0000
     21 H          -2.4348    2.6035    6.0954 H       1  LIG1        0.0000
     22 H          -0.2027    2.8289    1.8517 H       1  LIG1        0.0000
     23 H          -3.0276    3.1940    1.1067 H       1  LIG1        0.0000
     24 H          -1.9795    4.4458    1.1431 H       1  LIG1        0.0000
     25 H          -4.2864    5.1611    1.2950 H       1  LIG1        0.0000
     26 H          -3.4009    5.6487    2.5774 H       1  LIG1        0.0000
     27 H          -5.5299    4.5610    3.1781 H       1  LIG1        0.0000
     28 H          -4.8844    3.1704    2.6157 H       1  LIG1        0.0000
     29 H          -3.8477    4.7497    4.7935 H       1  LIG1        0.0000
     30 H          -4.4912    3.2546    4.9252 H       1  LIG1        0.0000
@<TRIPOS>BOND
     1     1     2    1
     2     2     3    1
     3     3     4    1
     4     4     5    1
     5     5     6   ar
     6     6     7   ar
     7     7     8   ar
     8     8     9   ar
     9     9    10   ar
    10    10     5   ar
    11     9    11    1
    12    11    12    1
    13    12    13    1
    14    13    14    1
    15    14     8    1
    16     1    15    1
    17     2    16    1
    18     2    17    1
    19     3    18    1
    20     3    19    1
    21     6    20    1
    22     7    21    1
    23    10    22    1
    24    11    23    1
    25    11    24    1
    26    12    25    1
    27    12    26    1
    28    13    27    1
    29    13    28    1
    30    14    29    1
    31    14    30    1
