@<TRIPOS>MOLECULE
*****
 30 31 0 0 0
SMALL
USER_CHARGES

@<TRIPOS>ATOM
      1 O1          1.2733    1.2733   -0.3664 O.3     1  LIG1        0.0000
      2 C2          1.0000    1.0000    1.0000 C.3     1  LIG1        0.0000
      3 C3          1.8776    1.8776    1.8776 C.3     1  LIG1        0.0000
      4 S4          1.5292    1.5292    3.6192 S.3     1  LIG1        0.0000
      5 C5          2.6107    2.6107    4.4460 C.ar    1  LIG1        0.0000
      6 C6          2.1912    3.8955    4.7732 C.ar    1  LIG1        0.0000
      7 C7          3.0661    4.7434    5.4408 C.ar    1  LIG1        0.0000
      8 C8          4.3383    4.2870    5.7630 C.ar    1  LIG1        0.0000
      9 C9          4.7622    3.0058    5.4117 C.ar    1  LIG1        0.0000
     10 C10         3.8811    2.1531    4.7566 C.ar    1  LIG1        0.0000
     11 C11         6.1720    2.5299    5.7230 C.3     1  LIG1        0.0000
     12 C12         6.8076    3.3566    6.8277 C.3     1  LIG1        0.0000
     13 C13         6.6994    4.8137    6.4073 C.3     1  LIG1        0.0000
     14 C14         5.2465    5.2360    6.5281 C.3     1  LIG1        0.0000
     15 H           0.6959    0.6959   -0.9437 H       1  LIG1        0.0000
     16 H           1.1925    0.0377    1.1925 H       1  LIG1        0.0000
     17 H           0.0377    1.1925    1.1925 H       1  LIG1        0.0000
     18 H           2.8398    1.6851    1.6851 H       1  LIG1        0.0000
     19 H           1.6851    2.8398    1.6851 H       1  LIG1        0.0000
     20 H           1.2716    4.2052    4.5311 H       1  LIG1        0.0000
     21 H           2.7838    5.6707    5.6864 H       1  LIG1        0.0000
     22 H           4.1598    1.2240    4.5134 H       1  LIG1        0.0000
     23 H           6.7306    2.6068    4.8972 H       1  LIG1        0.0000
     24 H           6.1355    1.5736    6.0129 H       1  LIG1        0.0000
     25 H           7.7680    3.1012    6.9390 H       1  LIG1        0.0000
     26 H           6.3218    3.2104    7.6895 H       1  LIG1        0.0000
     27 H           7.2675    5.3810    7.0035 H       1  LIG1        0.0000
     28 H           7.0041    4.9163    5.4604 H       1  LIG1        0.0000
     29 H           4.9842    5.2331    7.4931 H       1  LIG1        0.0000
     30 H           5.1422    6.1588    6.1572 H       1  LIG1        0.0000
@<TRIPOS>BOND
     1     1     2    1
     2     2     3    1
     3     3     4    1
     4     4     5    1
     5     5     6   ar
     6     6     7   ar
     7     7     8   ar
     8     8     9   ar
     9     9    10   ar
    10    10     5   ar
    11     9    11    1
    12    11    12    1
    13    12    13    1
    14    13    14    1
    15    14     8    1
    16     1    15    1
    17     2    16    1
    18     2    17    1
    19     3    18    1
    20     3    19    1
    21     6    20    1
    22     7    21    1
    23    10    22    1
    24    11    23    1
    25    11    24    1
    26    12    25    1
    27    12    26    1
    28    13    27    1
    29    13    28    1
    30    14    29    1
    31    14    30    1
