@<TRIPOS>MOLECULE

  28   29
SMALL
USER_CHARGES
@<TRIPOS>ATOM
   1 N1           0.3150    -0.1010     0.5579 N.am         1    LIG   0.0000
   2 C2           1.0000     1.0000     1.0000 C.2          1    LIG   0.0000
   3 O3           0.4000     1.9644     1.3873 O.2          1    LIG   0.0000
   4 N4           2.4017     1.0000     1.0000 N.am         1    LIG   0.0000
   5 C5           3.1101     0.3909    -0.1355 C.3          1    LIG   0.0000
   6 C6           4.5625     0.0415     0.1623 C.3          1    LIG   0.0000
   7 C7           4.8807    -0.1216     1.6430 C.ar         1    LIG   0.0000
   8 C8           4.1898     0.6576     2.5713 C.ar         1    LIG   0.0000
   9 C9           4.4662     0.5989     3.9332 C.ar         1    LIG   0.0000
  10 C10          5.4267    -0.3082     4.3663 C.ar         1    LIG   0.0000
  11 C11          6.1071    -1.1222     3.4657 C.ar         1    LIG   0.0000
  12 C12          5.8378    -1.0263     2.1051 C.ar         1    LIG   0.0000
  13 C13          6.6217    -1.9287     1.1655 C.3          1    LIG   0.0000
  14 F14          5.8105    -2.3976     0.2216 F            1    LIG   0.0000
  15 F15          7.6043    -1.2332     0.6000 F            1    LIG   0.0000
  16 F16          7.1362    -2.9445     1.8527 F            1    LIG   0.0000
  17 C17          3.0853     1.6146     2.1501 C.3          1    LIG   0.0000
  18 H            0.8150    -0.9046     0.2352 H            1    LIG   0.0000
  19 H           -0.6850    -0.1010     0.5579 H            1    LIG   0.0000
  20 H            3.0911     1.0343    -0.9008 H            1    LIG   0.0000
  21 H            2.6304    -0.4479    -0.3931 H            1    LIG   0.0000
  22 H            4.7783    -0.8183    -0.3004 H            1    LIG   0.0000
  23 H            5.1408     0.7710    -0.2032 H            1    LIG   0.0000
  24 H            3.9883     1.1915     4.5815 H            1    LIG   0.0000
  25 H            5.6323    -0.3770     5.3425 H            1    LIG   0.0000
  26 H            6.7886    -1.7749     3.7966 H            1    LIG   0.0000
  27 H            2.4402     1.7477     2.9025 H            1    LIG   0.0000
  28 H            3.4764     2.4964     1.8865 H            1    LIG   0.0000
@<TRIPOS>BOND
   1        1        2 am
   2        2        3 2
   3        2        4 am
   4        4        5 1
   5        5        6 1
   6        6        7 1
   7        7        8 ar
   8        8        9 ar
   9        9       10 ar
  10       10       11 ar
  11       11       12 ar
  12       12        7 ar
  13       12       13 1
  14       13       14 1
  15       13       15 1
  16       13       16 1
  17        8       17 1
  18       17        4 1
  19        1       18 1
  20        1       19 1
  21        5       20 1
  22        5       21 1
  23        6       22 1
  24        6       23 1
  25        9       24 1
  26       10       25 1
  27       11       26 1
  28       17       27 1
  29       17       28 1

@<TRIPOS>MOLECULE

  28   29
SMALL
USER_CHARGES
@<TRIPOS>ATOM
   1 N1           0.3150    -0.1010     0.5579 N.am         1    LIG   0.0000
   2 C2           1.0000     1.0000     1.0000 C.2          1    LIG   0.0000
   3 O3           0.4000     1.9644     1.3873 O.2          1    LIG   0.0000
   4 N4           2.4017     1.0000     1.0000 N.am         1    LIG   0.0000
   5 C5           3.1101     2.2879     1.0403 C.3          1    LIG   0.0000
   6 C6           4.5625     2.2047     0.5888 C.3          1    LIG   0.0000
   7 C7           4.8807     1.0040    -0.2928 C.ar         1    LIG   0.0000
   8 C8           4.1898    -0.1896    -0.0822 C.ar         1    LIG   0.0000
   9 C9           4.4662    -1.3396    -0.8139 C.ar         1    LIG   0.0000
  10 C10          5.4267    -1.2612    -1.8161 C.ar         1    LIG   0.0000
  11 C11          6.1071    -0.0742    -2.0707 C.ar         1    LIG   0.0000
  12 C12          5.8378     1.0561    -1.3074 C.ar         1    LIG   0.0000
  13 C13          6.6217     2.3211    -1.6190 C.3          1    LIG   0.0000
  14 F14          7.1539     2.2248    -2.8341 F            1    LIG   0.0000
  15 F15          5.8060     3.3705    -1.5742 F            1    LIG   0.0000
  16 F16          7.5911     2.4743    -0.7214 F            1    LIG   0.0000
  17 C17          3.0853    -0.3033     0.9572 C.3          1    LIG   0.0000
  18 H            0.8150    -0.9046     0.2352 H            1    LIG   0.0000
  19 H           -0.6850    -0.1010     0.5579 H            1    LIG   0.0000
  20 H            3.0911     2.6290     1.9801 H            1    LIG   0.0000
  21 H            2.6304     2.9304     0.4427 H            1    LIG   0.0000
  22 H            4.7783     3.0354     0.0755 H            1    LIG   0.0000
  23 H            5.1408     2.1565     1.4033 H            1    LIG   0.0000
  24 H            3.9883    -2.1975    -0.6249 H            1    LIG   0.0000
  25 H            5.6323    -2.0722    -2.3638 H            1    LIG   0.0000
  26 H            6.7886    -0.0344    -2.8015 H            1    LIG   0.0000
  27 H            2.4402    -1.0215     0.6963 H            1    LIG   0.0000
  28 H            3.4764    -0.5159     1.8527 H            1    LIG   0.0000
@<TRIPOS>BOND
   1        1        2 am
   2        2        3 2
   3        2        4 am
   4        4        5 1
   5        5        6 1
   6        6        7 1
   7        7        8 ar
   8        8        9 ar
   9        9       10 ar
  10       10       11 ar
  11       11       12 ar
  12       12        7 ar
  13       12       13 1
  14       13       14 1
  15       13       15 1
  16       13       16 1
  17        8       17 1
  18       17        4 1
  19        1       18 1
  20        1       19 1
  21        5       20 1
  22        5       21 1
  23        6       22 1
  24        6       23 1
  25        9       24 1
  26       10       25 1
  27       11       26 1
  28       17       27 1
  29       17       28 1

@<TRIPOS>MOLECULE

  28   29
SMALL
USER_CHARGES
@<TRIPOS>ATOM
   1 N1           0.3150    -0.1010     0.5579 N.am         1    LIG   0.0000
   2 C2           1.0000     1.0000     1.0000 C.2          1    LIG   0.0000
   3 O3           0.4000     1.9644     1.3873 O.2          1    LIG   0.0000
   4 N4           2.3992     1.0000     1.0000 N.am         1    LIG   0.0000
   5 C5           3.1656    -0.1574     0.5195 C.3          1    LIG   0.0000
   6 C6           4.6018    -0.1440     0.9792 C.3          1    LIG   0.0000
   7 C7           5.0956     1.1837     0.4433 C.ar         1    LIG   0.0000
   8 C8           4.3350     2.3091     0.6966 C.ar         1    LIG   0.0000
   9 C9           4.7632     3.5264     0.1963 C.ar         1    LIG   0.0000
  10 C10          5.9218     3.6029    -0.5685 C.ar         1    LIG   0.0000
  11 C11          6.6634     2.4536    -0.8236 C.ar         1    LIG   0.0000
  12 C12          6.2595     1.2289    -0.3090 C.ar         1    LIG   0.0000
  13 C13          7.1031     0.0026    -0.6132 C.3          1    LIG   0.0000
  14 F14          6.4615    -0.7720    -1.4835 F            1    LIG   0.0000
  15 F15          8.2671     0.3829    -1.1322 F            1    LIG   0.0000
  16 F16          7.3190    -0.6767     0.5097 F            1    LIG   0.0000
  17 C17          3.0480     2.2233     1.4912 C.3          1    LIG   0.0000
  18 H            0.8150    -0.9046     0.2352 H            1    LIG   0.0000
  19 H           -0.6850    -0.1010     0.5579 H            1    LIG   0.0000
  20 H            3.1509    -0.1567    -0.4804 H            1    LIG   0.0000
  21 H            2.7301    -0.9913     0.8586 H            1    LIG   0.0000
  22 H            4.6637    -0.1782     1.9767 H            1    LIG   0.0000
  23 H            5.1154    -0.9071     0.5870 H            1    LIG   0.0000
  24 H            4.2366     4.3551     0.3858 H            1    LIG   0.0000
  25 H            6.2220     4.4835    -0.9350 H            1    LIG   0.0000
  26 H            7.4919     2.5099    -1.3808 H            1    LIG   0.0000
  27 H            3.2399     2.1539     2.4702 H            1    LIG   0.0000
  28 H            2.4721     3.0228     1.3203 H            1    LIG   0.0000
@<TRIPOS>BOND
   1        1        2 am
   2        2        3 2
   3        2        4 am
   4        4        5 1
   5        5        6 1
   6        6        7 1
   7        7        8 ar
   8        8        9 ar
   9        9       10 ar
  10       10       11 ar
  11       11       12 ar
  12       12        7 ar
  13       12       13 1
  14       13       14 1
  15       13       15 1
  16       13       16 1
  17        8       17 1
  18       17        4 1
  19        1       18 1
  20        1       19 1
  21        5       20 1
  22        5       21 1
  23        6       22 1
  24        6       23 1
  25        9       24 1
  26       10       25 1
  27       11       26 1
  28       17       27 1
  29       17       28 1

@<TRIPOS>MOLECULE

  28   29
SMALL
USER_CHARGES
@<TRIPOS>ATOM
   1 N1           0.3150    -0.1010     0.5579 N.am         1    LIG   0.0000
   2 C2           1.0000     1.0000     1.0000 C.2          1    LIG   0.0000
   3 O3           0.4000     1.9644     1.3873 O.2          1    LIG   0.0000
   4 N4           2.3992     1.0000     1.0000 N.am         1    LIG   0.0000
   5 C5           3.1656     0.4222    -0.1121 C.3          1    LIG   0.0000
   6 C6           4.6018     0.1371     0.2487 C.3          1    LIG   0.0000
   7 C7           5.0956     1.4986     0.6916 C.ar         1    LIG   0.0000
   8 C8           4.3350     2.1978     1.6091 C.ar         1    LIG   0.0000
   9 C9           4.7632     3.4519     2.0083 C.ar         1    LIG   0.0000
  10 C10          5.9218     4.0021     1.4716 C.ar         1    LIG   0.0000
  11 C11          6.6634     3.2857     0.5374 C.ar         1    LIG   0.0000
  12 C12          6.2595     2.0167     0.1444 C.ar         1    LIG   0.0000
  13 C13          7.1031     1.2729    -0.8769 C.3          1    LIG   0.0000
  14 F14          6.3196     0.8120    -1.8478 F            1    LIG   0.0000
  15 F15          8.0074     2.1008    -1.3924 F            1    LIG   0.0000
  16 F16          7.7207     0.2547    -0.2847 F            1    LIG   0.0000
  17 C17          3.0480     1.6213     2.1626 C.3          1    LIG   0.0000
  18 H            0.8150    -0.9046     0.2352 H            1    LIG   0.0000
  19 H           -0.6850    -0.1010     0.5579 H            1    LIG   0.0000
  20 H            3.1509     1.0655    -0.8776 H            1    LIG   0.0000
  21 H            2.7301    -0.4345    -0.3882 H            1    LIG   0.0000
  22 H            4.6637    -0.5303     0.9909 H            1    LIG   0.0000
  23 H            5.1154    -0.1954    -0.5423 H            1    LIG   0.0000
  24 H            4.2366     3.9650     2.6862 H            1    LIG   0.0000
  25 H            6.2220     4.9123     1.7568 H            1    LIG   0.0000
  26 H            7.4919     3.6870     0.1468 H            1    LIG   0.0000
  27 H            3.2399     0.9389     2.8679 H            1    LIG   0.0000
  28 H            2.4721     2.3437     2.5456 H            1    LIG   0.0000
@<TRIPOS>BOND
   1        1        2 am
   2        2        3 2
   3        2        4 am
   4        4        5 1
   5        5        6 1
   6        6        7 1
   7        7        8 ar
   8        8        9 ar
   9        9       10 ar
  10       10       11 ar
  11       11       12 ar
  12       12        7 ar
  13       12       13 1
  14       13       14 1
  15       13       15 1
  16       13       16 1
  17        8       17 1
  18       17        4 1
  19        1       18 1
  20        1       19 1
  21        5       20 1
  22        5       21 1
  23        6       22 1
  24        6       23 1
  25        9       24 1
  26       10       25 1
  27       11       26 1
  28       17       27 1
  29       17       28 1

@<TRIPOS>MOLECULE

  28   29
SMALL
USER_CHARGES
@<TRIPOS>ATOM
   1 N1           0.3150    -0.1010     0.5579 N.am         1    LIG   0.0000
   2 C2           1.0000     1.0000     1.0000 C.2          1    LIG   0.0000
   3 O3           0.4000     1.9644     1.3873 O.2          1    LIG   0.0000
   4 N4           2.3992     1.0000     1.0000 N.am         1    LIG   0.0000
   5 C5           3.1656     1.5778     2.1121 C.3          1    LIG   0.0000
   6 C6           4.6018     1.8629     1.7513 C.3          1    LIG   0.0000
   7 C7           5.0956     0.5014     1.3084 C.ar         1    LIG   0.0000
   8 C8           4.3350    -0.1978     0.3909 C.ar         1    LIG   0.0000
   9 C9           4.7632    -1.4519    -0.0083 C.ar         1    LIG   0.0000
  10 C10          5.9218    -2.0021     0.5284 C.ar         1    LIG   0.0000
  11 C11          6.6634    -1.2857     1.4626 C.ar         1    LIG   0.0000
  12 C12          6.2595    -0.0167     1.8556 C.ar         1    LIG   0.0000
  13 C13          7.1031     0.7271     2.8769 C.3          1    LIG   0.0000
  14 F14          8.1078    -0.0495     3.2721 F            1    LIG   0.0000
  15 F15          7.5897     1.8360     2.3269 F            1    LIG   0.0000
  16 F16          6.3502     1.0461     3.9259 F            1    LIG   0.0000
  17 C17          3.0480     0.3787    -0.1626 C.3          1    LIG   0.0000
  18 H            0.8150    -0.9046     0.2352 H            1    LIG   0.0000
  19 H           -0.6850    -0.1010     0.5579 H            1    LIG   0.0000
  20 H            3.1509     0.9345     2.8776 H            1    LIG   0.0000
  21 H            2.7301     2.4345     2.3882 H            1    LIG   0.0000
  22 H            4.6637     2.5303     1.0091 H            1    LIG   0.0000
  23 H            5.1154     2.1954     2.5423 H            1    LIG   0.0000
  24 H            4.2366    -1.9650    -0.6862 H            1    LIG   0.0000
  25 H            6.2220    -2.9123     0.2432 H            1    LIG   0.0000
  26 H            7.4919    -1.6870     1.8532 H            1    LIG   0.0000
  27 H            3.2399     1.0611    -0.8679 H            1    LIG   0.0000
  28 H            2.4721    -0.3437    -0.5456 H            1    LIG   0.0000
@<TRIPOS>BOND
   1        1        2 am
   2        2        3 2
   3        2        4 am
   4        4        5 1
   5        5        6 1
   6        6        7 1
   7        7        8 ar
   8        8        9 ar
   9        9       10 ar
  10       10       11 ar
  11       11       12 ar
  12       12        7 ar
  13       12       13 1
  14       13       14 1
  15       13       15 1
  16       13       16 1
  17        8       17 1
  18       17        4 1
  19        1       18 1
  20        1       19 1
  21        5       20 1
  22        5       21 1
  23        6       22 1
  24        6       23 1
  25        9       24 1
  26       10       25 1
  27       11       26 1
  28       17       27 1
  29       17       28 1

@<TRIPOS>MOLECULE

  28   29
SMALL
USER_CHARGES
@<TRIPOS>ATOM
   1 N1           0.3150    -0.1010     0.5579 N.am         1    LIG   0.0000
   2 C2           1.0000     1.0000     1.0000 C.2          1    LIG   0.0000
   3 O3           0.4000     1.9644     1.3873 O.2          1    LIG   0.0000
   4 N4           2.3992     1.0000     1.0000 N.am         1    LIG   0.0000
   5 C5           3.1656     2.1955     0.6241 C.3          1    LIG   0.0000
   6 C6           4.6018     1.8897     0.2806 C.3          1    LIG   0.0000
   7 C7           5.0956     1.2171     1.5446 C.ar         1    LIG   0.0000
   8 C8           4.3350     0.1922     2.0738 C.ar         1    LIG   0.0000
   9 C9           4.7632    -0.4187     3.2396 C.ar         1    LIG   0.0000
  10 C10          5.9218     0.0143     3.8746 C.ar         1    LIG   0.0000
  11 C11          6.6634     1.0587     3.3313 C.ar         1    LIG   0.0000
  12 C12          6.2595     1.6661     2.1498 C.ar         1    LIG   0.0000
  13 C13          7.1031     2.8010     1.5947 C.3          1    LIG   0.0000
  14 F14          7.3038     2.6091     0.2940 F            1    LIG   0.0000
  15 F15          6.4697     3.9558     1.7798 F            1    LIG   0.0000
  16 F16          8.2743     2.8319     2.2242 F            1    LIG   0.0000
  17 C17          3.0480    -0.2529     1.4100 C.3          1    LIG   0.0000
  18 H            0.8150    -0.9046     0.2352 H            1    LIG   0.0000
  19 H           -0.6850    -0.1010     0.5579 H            1    LIG   0.0000
  20 H            3.1509     2.8377     1.3906 H            1    LIG   0.0000
  21 H            2.7301     2.6163    -0.1717 H            1    LIG   0.0000
  22 H            4.6637     1.2747    -0.5055 H            1    LIG   0.0000
  23 H            5.1154     2.7264     0.0905 H            1    LIG   0.0000
  24 H            4.2366    -1.1754     3.6271 H            1    LIG   0.0000
  25 H            6.2220    -0.4247     4.7215 H            1    LIG   0.0000
  26 H            7.4919     1.3737     3.7944 H            1    LIG   0.0000
  27 H            3.2399    -0.8289     0.6155 H            1    LIG   0.0000
  28 H            2.4721    -0.7555     2.0548 H            1    LIG   0.0000
@<TRIPOS>BOND
   1        1        2 am
   2        2        3 2
   3        2        4 am
   4        4        5 1
   5        5        6 1
   6        6        7 1
   7        7        8 ar
   8        8        9 ar
   9        9       10 ar
  10       10       11 ar
  11       11       12 ar
  12       12        7 ar
  13       12       13 1
  14       13       14 1
  15       13       15 1
  16       13       16 1
  17        8       17 1
  18       17        4 1
  19        1       18 1
  20        1       19 1
  21        5       20 1
  22        5       21 1
  23        6       22 1
  24        6       23 1
  25        9       24 1
  26       10       25 1
  27       11       26 1
  28       17       27 1
  29       17       28 1

@<TRIPOS>MOLECULE

  28   29
SMALL
USER_CHARGES
@<TRIPOS>ATOM
   1 N1           0.3150    -0.1010     0.5579 N.am         1    LIG   0.0000
   2 C2           1.0000     1.0000     1.0000 C.2          1    LIG   0.0000
   3 O3           0.4000     1.9644     1.3873 O.2          1    LIG   0.0000
   4 N4           2.4077     1.0000     1.0000 N.am         1    LIG   0.0000
   5 C5           3.2585    -0.1142     0.5377 C.3          1    LIG   0.0000
   6 C6           3.9300     0.2928    -0.7589 C.3          1    LIG   0.0000
   7 C7           4.7016     1.5849    -0.5362 C.ar         1    LIG   0.0000
   8 C8           4.3576     2.4590     0.4967 C.ar         1    LIG   0.0000
   9 C9           5.0892     3.6345     0.6306 C.ar         1    LIG   0.0000
  10 C10          6.1328     3.9334    -0.2396 C.ar         1    LIG   0.0000
  11 C11          6.4634     3.0470    -1.2592 C.ar         1    LIG   0.0000
  12 C12          5.7488     1.8635    -1.4113 C.ar         1    LIG   0.0000
  13 C13          6.1509     0.9391    -2.5502 C.3          1    LIG   0.0000
  14 F14          5.1131     0.7585    -3.3622 F            1    LIG   0.0000
  15 F15          7.1559     1.4841    -3.2298 F            1    LIG   0.0000
  16 F16          6.5353    -0.2338    -2.0546 F            1    LIG   0.0000
  17 C17          3.2218     2.1330     1.4550 C.3          1    LIG   0.0000
  18 H            0.8150    -0.9046     0.2352 H            1    LIG   0.0000
  19 H           -0.6850    -0.1010     0.5579 H            1    LIG   0.0000
  20 H            2.6956    -0.9264     0.3846 H            1    LIG   0.0000
  21 H            3.9536    -0.3156     1.2279 H            1    LIG   0.0000
  22 H            4.5599    -0.4272    -1.0502 H            1    LIG   0.0000
  23 H            3.2363     0.4346    -1.4651 H            1    LIG   0.0000
  24 H            4.8615     4.2749     1.3641 H            1    LIG   0.0000
  25 H            6.6450     4.7855    -0.1321 H            1    LIG   0.0000
  26 H            7.2151     3.2606    -1.8831 H            1    LIG   0.0000
  27 H            3.6109     1.9094     2.3486 H            1    LIG   0.0000
  28 H            2.6332     2.9369     1.5394 H            1    LIG   0.0000
@<TRIPOS>BOND
   1        1        2 am
   2        2        3 2
   3        2        4 am
   4        4        5 1
   5        5        6 1
   6        6        7 1
   7        7        8 ar
   8        8        9 ar
   9        9       10 ar
  10       10       11 ar
  11       11       12 ar
  12       12        7 ar
  13       12       13 1
  14       13       14 1
  15       13       15 1
  16       13       16 1
  17        8       17 1
  18       17        4 1
  19        1       18 1
  20        1       19 1
  21        5       20 1
  22        5       21 1
  23        6       22 1
  24        6       23 1
  25        9       24 1
  26       10       25 1
  27       11       26 1
  28       17       27 1
  29       17       28 1

@<TRIPOS>MOLECULE

  28   29
SMALL
USER_CHARGES
@<TRIPOS>ATOM
   1 N1           0.3150    -0.1010     0.5579 N.am         1    LIG   0.0000
   2 C2           1.0000     1.0000     1.0000 C.2          1    LIG   0.0000
   3 O3           0.4000     1.9644     1.3873 O.2          1    LIG   0.0000
   4 N4           2.4077     1.0000     1.0000 N.am         1    LIG   0.0000
   5 C5           3.2585     0.4436    -0.0703 C.3          1    LIG   0.0000
   6 C6           3.9300     1.5889    -0.8020 C.3          1    LIG   0.0000
   7 C7           4.7016     2.4356     0.1992 C.ar         1    LIG   0.0000
   8 C8           4.3576     2.4412     1.5523 C.ar         1    LIG   0.0000
   9 C9           5.0892     3.2556     2.4105 C.ar         1    LIG   0.0000
  10 C10          6.1328     4.0440     1.9360 C.ar         1    LIG   0.0000
  11 C11          6.4634     4.0203     0.5851 C.ar         1    LIG   0.0000
  12 C12          5.7488     3.2114    -0.2921 C.ar         1    LIG   0.0000
  13 C13          6.1509     3.2354    -1.7588 C.3          1    LIG   0.0000
  14 F14          5.0618     3.1593    -2.5184 F            1    LIG   0.0000
  15 F15          6.7973     4.3673    -2.0228 F            1    LIG   0.0000
  16 F16          6.9451     2.2004    -2.0177 F            1    LIG   0.0000
  17 C17          3.2218     1.5755     2.0768 C.3          1    LIG   0.0000
  18 H            0.8150    -0.9046     0.2352 H            1    LIG   0.0000
  19 H           -0.6850    -0.1010     0.5579 H            1    LIG   0.0000
  20 H            2.6956    -0.0802    -0.7097 H            1    LIG   0.0000
  21 H            3.9536    -0.1543     0.3289 H            1    LIG   0.0000
  22 H            4.5599     1.2245    -1.4879 H            1    LIG   0.0000
  23 H            3.2363     2.1514    -1.2518 H            1    LIG   0.0000
  24 H            4.8615     3.2747     3.3840 H            1    LIG   0.0000
  25 H            6.6450     4.6276     2.5660 H            1    LIG   0.0000
  26 H            7.2151     4.5850     0.2445 H            1    LIG   0.0000
  27 H            3.6109     0.8298     2.6177 H            1    LIG   0.0000
  28 H            2.6332     2.1371     2.6583 H            1    LIG   0.0000
@<TRIPOS>BOND
   1        1        2 am
   2        2        3 2
   3        2        4 am
   4        4        5 1
   5        5        6 1
   6        6        7 1
   7        7        8 ar
   8        8        9 ar
   9        9       10 ar
  10       10       11 ar
  11       11       12 ar
  12       12        7 ar
  13       12       13 1
  14       13       14 1
  15       13       15 1
  16       13       16 1
  17        8       17 1
  18       17        4 1
  19        1       18 1
  20        1       19 1
  21        5       20 1
  22        5       21 1
  23        6       22 1
  24        6       23 1
  25        9       24 1
  26       10       25 1
  27       11       26 1
  28       17       27 1
  29       17       28 1

@<TRIPOS>MOLECULE

  28   29
SMALL
USER_CHARGES
@<TRIPOS>ATOM
   1 N1           0.3150    -0.1010     0.5579 N.am         1    LIG   0.0000
   2 C2           1.0000     1.0000     1.0000 C.2          1    LIG   0.0000
   3 O3           0.4000     1.9644     1.3873 O.2          1    LIG   0.0000
   4 N4           2.4077     1.0000     1.0000 N.am         1    LIG   0.0000
   5 C5           3.2585    -0.1507     1.3621 C.3          1    LIG   0.0000
   6 C6           3.9300    -0.6723     0.1072 C.3          1    LIG   0.0000
   7 C7           4.7016     0.4606    -0.5528 C.ar         1    LIG   0.0000
   8 C8           4.3576     1.7942    -0.3234 C.ar         1    LIG   0.0000
   9 C9           5.0892     2.7807    -0.9764 C.ar         1    LIG   0.0000
  10 C10          6.1328     2.4503    -1.8352 C.ar         1    LIG   0.0000
  11 C11          6.4634     1.1159    -2.0464 C.ar         1    LIG   0.0000
  12 C12          5.7488     0.1115    -1.4022 C.ar         1    LIG   0.0000
  13 C13          6.1509    -1.3287    -1.6805 C.3          1    LIG   0.0000
  14 F14          5.2647    -1.8858    -2.5009 F            1    LIG   0.0000
  15 F15          7.3544    -1.3516    -2.2461 F            1    LIG   0.0000
  16 F16          6.1852    -2.0081    -0.5376 F            1    LIG   0.0000
  17 C17          3.2218     2.1604     0.6203 C.3          1    LIG   0.0000
  18 H            0.8150    -0.9046     0.2352 H            1    LIG   0.0000
  19 H           -0.6850    -0.1010     0.5579 H            1    LIG   0.0000
  20 H            2.6956    -0.8713     1.7669 H            1    LIG   0.0000
  21 H            3.9536     0.1387     2.0202 H            1    LIG   0.0000
  22 H            4.5599    -1.4111     0.3469 H            1    LIG   0.0000
  23 H            3.2363    -1.0176    -0.5249 H            1    LIG   0.0000
  24 H            4.8615     3.7428    -0.8261 H            1    LIG   0.0000
  25 H            6.6450     3.1722    -2.3005 H            1    LIG   0.0000
  26 H            7.2151     0.8785    -2.6617 H            1    LIG   0.0000
  27 H            3.6109     2.5635     1.4485 H            1    LIG   0.0000
  28 H            2.6332     2.8305     0.1682 H            1    LIG   0.0000
@<TRIPOS>BOND
   1        1        2 am
   2        2        3 2
   3        2        4 am
   4        4        5 1
   5        5        6 1
   6        6        7 1
   7        7        8 ar
   8        8        9 ar
   9        9       10 ar
  10       10       11 ar
  11       11       12 ar
  12       12        7 ar
  13       12       13 1
  14       13       14 1
  15       13       15 1
  16       13       16 1
  17        8       17 1
  18       17        4 1
  19        1       18 1
  20        1       19 1
  21        5       20 1
  22        5       21 1
  23        6       22 1
  24        6       23 1
  25        9       24 1
  26       10       25 1
  27       11       26 1
  28       17       27 1
  29       17       28 1

@<TRIPOS>MOLECULE

  28   29
SMALL
USER_CHARGES
@<TRIPOS>ATOM
   1 N1           0.3150    -0.1010     0.5579 N.am         1    LIG   0.0000
   2 C2           1.0000     1.0000     1.0000 C.2          1    LIG   0.0000
   3 O3           0.4000     1.9644     1.3873 O.2          1    LIG   0.0000
   4 N4           2.4077     1.0000     1.0000 N.am         1    LIG   0.0000
   5 C5           3.2585     2.1142     1.4623 C.3          1    LIG   0.0000
   6 C6           3.9300     1.7072     2.7589 C.3          1    LIG   0.0000
   7 C7           4.7016     0.4151     2.5362 C.ar         1    LIG   0.0000
   8 C8           4.3576    -0.4590     1.5033 C.ar         1    LIG   0.0000
   9 C9           5.0892    -1.6345     1.3694 C.ar         1    LIG   0.0000
  10 C10          6.1328    -1.9334     2.2396 C.ar         1    LIG   0.0000
  11 C11          6.4634    -1.0470     3.2592 C.ar         1    LIG   0.0000
  12 C12          5.7488     0.1365     3.4113 C.ar         1    LIG   0.0000
  13 C13          6.1509     1.0609     4.5502 C.3          1    LIG   0.0000
  14 F14          6.9404     0.4049     5.3959 F            1    LIG   0.0000
  15 F15          6.8025     2.1115     4.0596 F            1    LIG   0.0000
  16 F16          5.0614     1.4747     5.1911 F            1    LIG   0.0000
  17 C17          3.2218    -0.1330     0.5450 C.3          1    LIG   0.0000
  18 H            0.8150    -0.9046     0.2352 H            1    LIG   0.0000
  19 H           -0.6850    -0.1010     0.5579 H            1    LIG   0.0000
  20 H            2.6956     2.9264     1.6154 H            1    LIG   0.0000
  21 H            3.9536     2.3156     0.7721 H            1    LIG   0.0000
  22 H            4.5599     2.4272     3.0502 H            1    LIG   0.0000
  23 H            3.2363     1.5654     3.4651 H            1    LIG   0.0000
  24 H            4.8615    -2.2749     0.6359 H            1    LIG   0.0000
  25 H            6.6450    -2.7855     2.1321 H            1    LIG   0.0000
  26 H            7.2151    -1.2606     3.8831 H            1    LIG   0.0000
  27 H            3.6109     0.0906    -0.3486 H            1    LIG   0.0000
  28 H            2.6332    -0.9369     0.4606 H            1    LIG   0.0000
@<TRIPOS>BOND
   1        1        2 am
   2        2        3 2
   3        2        4 am
   4        4        5 1
   5        5        6 1
   6        6        7 1
   7        7        8 ar
   8        8        9 ar
   9        9       10 ar
  10       10       11 ar
  11       11       12 ar
  12       12        7 ar
  13       12       13 1
  14       13       14 1
  15       13       15 1
  16       13       16 1
  17        8       17 1
  18       17        4 1
  19        1       18 1
  20        1       19 1
  21        5       20 1
  22        5       21 1
  23        6       22 1
  24        6       23 1
  25        9       24 1
  26       10       25 1
  27       11       26 1
  28       17       27 1
  29       17       28 1

@<TRIPOS>MOLECULE

  28   29
SMALL
USER_CHARGES
@<TRIPOS>ATOM
   1 N1           0.3150    -0.1010     0.5579 N.am         1    LIG   0.0000
   2 C2           1.0000     1.0000     1.0000 C.2          1    LIG   0.0000
   3 O3           0.4000     1.9644     1.3873 O.2          1    LIG   0.0000
   4 N4           2.4077     1.0000     1.0000 N.am         1    LIG   0.0000
   5 C5           3.2585     2.2051     1.0533 C.3          1    LIG   0.0000
   6 C6           3.9300     2.2661     2.4110 C.3          1    LIG   0.0000
   7 C7           4.7016     0.9758     2.6436 C.ar         1    LIG   0.0000
   8 C8           4.3576    -0.1989     1.9720 C.ar         1    LIG   0.0000
   9 C9           5.0892    -1.3493     2.2482 C.ar         1    LIG   0.0000
  10 C10          6.1328    -1.3326     3.1682 C.ar         1    LIG   0.0000
  11 C11          6.4634    -0.1508     3.8231 C.ar         1    LIG   0.0000
  12 C12          5.7488     1.0133     3.5612 C.ar         1    LIG   0.0000
  13 C13          6.1509     2.2715     4.3153 C.3          1    LIG   0.0000
  14 F14          7.3891     2.1329     4.7805 F            1    LIG   0.0000
  15 F15          6.1003     3.3161     3.4936 F            1    LIG   0.0000
  16 F16          5.3148     2.4658     5.3312 F            1    LIG   0.0000
  17 C17          3.2218    -0.2203     0.9600 C.3          1    LIG   0.0000
  18 H            0.8150    -0.9046     0.2352 H            1    LIG   0.0000
  19 H           -0.6850    -0.1010     0.5579 H            1    LIG   0.0000
  20 H            2.6956     3.0207     0.9194 H            1    LIG   0.0000
  21 H            3.9536     2.1583     0.3359 H            1    LIG   0.0000
  22 H            4.5599     3.0424     2.4384 H            1    LIG   0.0000
  23 H            3.2363     2.3744     3.1230 H            1    LIG   0.0000
  24 H            4.8615    -2.2019     1.7779 H            1    LIG   0.0000
  25 H            6.6450    -2.1700     3.3585 H            1    LIG   0.0000
  26 H            7.2151    -0.1382     4.4824 H            1    LIG   0.0000
  27 H            3.6109    -0.3158     0.0437 H            1    LIG   0.0000
  28 H            2.6332    -1.0046     1.1556 H            1    LIG   0.0000
@<TRIPOS>BOND
   1        1        2 am
   2        2        3 2
   3        2        4 am
   4        4        5 1
   5        5        6 1
   6        6        7 1
   7        7        8 ar
   8        8        9 ar
   9        9       10 ar
  10       10       11 ar
  11       11       12 ar
  12       12        7 ar
  13       12       13 1
  14       13       14 1
  15       13       15 1
  16       13       16 1
  17        8       17 1
  18       17        4 1
  19        1       18 1
  20        1       19 1
  21        5       20 1
  22        5       21 1
  23        6       22 1
  24        6       23 1
  25        9       24 1
  26       10       25 1
  27       11       26 1
  28       17       27 1
  29       17       28 1

@<TRIPOS>MOLECULE

  28   29
SMALL
USER_CHARGES
@<TRIPOS>ATOM
   1 N1           0.3150    -0.1010     0.5579 N.am         1    LIG   0.0000
   2 C2           1.0000     1.0000     1.0000 C.2          1    LIG   0.0000
   3 O3           0.4000     1.9644     1.3873 O.2          1    LIG   0.0000
   4 N4           2.4013     1.0000     1.0000 N.am         1    LIG   0.0000
   5 C5           3.2495     0.4458    -0.0542 C.3          1    LIG   0.0000
   6 C6           3.7355    -0.8741     0.5223 C.3          1    LIG   0.0000
   7 C7           4.5521    -0.5954     1.7740 C.ar         1    LIG   0.0000
   8 C8           4.2695     0.5546     2.5050 C.ar         1    LIG   0.0000
   9 C9           4.9506     0.8158     3.6858 C.ar         1    LIG   0.0000
  10 C10          5.9356    -0.0636     4.1184 C.ar         1    LIG   0.0000
  11 C11          6.2406    -1.1950     3.3716 C.ar         1    LIG   0.0000
  12 C12          5.5551    -1.4679     2.1944 C.ar         1    LIG   0.0000
  13 C13          5.9176    -2.7295     1.4238 C.3          1    LIG   0.0000
  14 F14          4.9282    -3.0401     0.5911 F            1    LIG   0.0000
  15 F15          7.0323    -2.5199     0.7292 F            1    LIG   0.0000
  16 F16          6.1091    -3.7310     2.2778 F            1    LIG   0.0000
  17 C17          3.2311     1.5696     2.0658 C.3          1    LIG   0.0000
  18 H            0.8150    -0.9046     0.2352 H            1    LIG   0.0000
  19 H           -0.6850    -0.1010     0.5579 H            1    LIG   0.0000
  20 H            4.0192     1.0541    -0.2480 H            1    LIG   0.0000
  21 H            2.7239     0.2961    -0.8916 H            1    LIG   0.0000
  22 H            2.9503    -1.4480     0.7549 H            1    LIG   0.0000
  23 H            4.3047    -1.3452    -0.1516 H            1    LIG   0.0000
  24 H            4.7337     1.6316     4.2218 H            1    LIG   0.0000
  25 H            6.4268     0.1184     4.9702 H            1    LIG   0.0000
  26 H            6.9585    -1.8172     3.6837 H            1    LIG   0.0000
  27 H            2.6521     1.8107     2.8446 H            1    LIG   0.0000
  28 H            3.6913     2.3898     1.7260 H            1    LIG   0.0000
@<TRIPOS>BOND
   1        1        2 am
   2        2        3 2
   3        2        4 am
   4        4        5 1
   5        5        6 1
   6        6        7 1
   7        7        8 ar
   8        8        9 ar
   9        9       10 ar
  10       10       11 ar
  11       11       12 ar
  12       12        7 ar
  13       12       13 1
  14       13       14 1
  15       13       15 1
  16       13       16 1
  17        8       17 1
  18       17        4 1
  19        1       18 1
  20        1       19 1
  21        5       20 1
  22        5       21 1
  23        6       22 1
  24        6       23 1
  25        9       24 1
  26       10       25 1
  27       11       26 1
  28       17       27 1
  29       17       28 1

@<TRIPOS>MOLECULE

  28   29
SMALL
USER_CHARGES
@<TRIPOS>ATOM
   1 N1           0.3150    -0.1010     0.5579 N.am         1    LIG   0.0000
   2 C2           1.0000     1.0000     1.0000 C.2          1    LIG   0.0000
   3 O3           0.4000     1.9644     1.3873 O.2          1    LIG   0.0000
   4 N4           2.4013     1.0000     1.0000 N.am         1    LIG   0.0000
   5 C5           3.2495     2.1021     1.4513 C.3          1    LIG   0.0000
   6 C6           3.7355     2.7427     0.1613 C.3          1    LIG   0.0000
   7 C7           4.5521     1.7246    -0.6185 C.ar         1    LIG   0.0000
   8 C8           4.2695     0.3738    -0.4393 C.ar         1    LIG   0.0000
   9 C9           4.9506    -0.5852    -1.1759 C.ar         1    LIG   0.0000
  10 C10          5.9356    -0.1897    -2.0725 C.ar         1    LIG   0.0000
  11 C11          6.2406     1.1570    -2.2277 C.ar         1    LIG   0.0000
  12 C12          5.5551     2.1228    -1.5013 C.ar         1    LIG   0.0000
  13 C13          5.9176     3.5846    -1.7220 C.3          1    LIG   0.0000
  14 F14          6.3805     3.7447    -2.9585 F            1    LIG   0.0000
  15 F15          4.8362     4.3400    -1.5521 F            1    LIG   0.0000
  16 F16          6.8528     3.9462    -0.8481 F            1    LIG   0.0000
  17 C17          3.2311    -0.1214     0.5497 C.3          1    LIG   0.0000
  18 H            0.8150    -0.9046     0.2352 H            1    LIG   0.0000
  19 H           -0.6850    -0.1010     0.5579 H            1    LIG   0.0000
  20 H            4.0192     1.7607     1.9908 H            1    LIG   0.0000
  21 H            2.7239     2.7551     1.9966 H            1    LIG   0.0000
  22 H            2.9503     3.0328    -0.3858 H            1    LIG   0.0000
  23 H            4.3047     3.5367     0.3747 H            1    LIG   0.0000
  24 H            4.7337    -1.5548    -1.0620 H            1    LIG   0.0000
  25 H            6.4268    -0.8767    -2.6080 H            1    LIG   0.0000
  26 H            6.9585     1.4330    -2.8667 H            1    LIG   0.0000
  27 H            2.6521    -0.8067     0.1080 H            1    LIG   0.0000
  28 H            3.6913    -0.5313     1.3372 H            1    LIG   0.0000
@<TRIPOS>BOND
   1        1        2 am
   2        2        3 2
   3        2        4 am
   4        4        5 1
   5        5        6 1
   6        6        7 1
   7        7        8 ar
   8        8        9 ar
   9        9       10 ar
  10       10       11 ar
  11       11       12 ar
  12       12        7 ar
  13       12       13 1
  14       13       14 1
  15       13       15 1
  16       13       16 1
  17        8       17 1
  18       17        4 1
  19        1       18 1
  20        1       19 1
  21        5       20 1
  22        5       21 1
  23        6       22 1
  24        6       23 1
  25        9       24 1
  26       10       25 1
  27       11       26 1
  28       17       27 1
  29       17       28 1

@<TRIPOS>MOLECULE

  28   29
SMALL
USER_CHARGES
@<TRIPOS>ATOM
   1 N1           0.3150    -0.1010     0.5579 N.am         1    LIG   0.0000
   2 C2           1.0000     1.0000     1.0000 C.2          1    LIG   0.0000
   3 O3           0.4000     1.9644     1.3873 O.2          1    LIG   0.0000
   4 N4           2.4013     1.0000     1.0000 N.am         1    LIG   0.0000
   5 C5           3.2495     1.8813     1.8011 C.3          1    LIG   0.0000
   6 C6           3.7355     2.9245     0.8079 C.3          1    LIG   0.0000
   7 C7           4.5521     2.2345    -0.2730 C.ar         1    LIG   0.0000
   8 C8           4.2695     0.9038    -0.5666 C.ar         1    LIG   0.0000
   9 C9           4.9506     0.2545    -1.5868 C.ar         1    LIG   0.0000
  10 C10          5.9356     0.9329    -2.2941 C.ar         1    LIG   0.0000
  11 C11          6.2406     2.2515    -1.9793 C.ar         1    LIG   0.0000
  12 C12          5.5551     2.9106    -0.9664 C.ar         1    LIG   0.0000
  13 C13          5.9176     4.3597    -0.6738 C.3          1    LIG   0.0000
  14 F14          7.1503     4.6048    -1.1089 F            1    LIG   0.0000
  15 F15          5.0601     5.1651    -1.2942 F            1    LIG   0.0000
  16 F16          5.8591     4.5753     0.6373 F            1    LIG   0.0000
  17 C17          3.2311     0.1002     0.1933 C.3          1    LIG   0.0000
  18 H            0.8150    -0.9046     0.2352 H            1    LIG   0.0000
  19 H           -0.6850    -0.1010     0.5579 H            1    LIG   0.0000
  20 H            4.0192     1.3759     2.1912 H            1    LIG   0.0000
  21 H            2.7239     2.3084     2.5368 H            1    LIG   0.0000
  22 H            2.9503     3.3842     0.3931 H            1    LIG   0.0000
  23 H            4.3047     3.5976     1.2800 H            1    LIG   0.0000
  24 H            4.7337    -0.6955    -1.8115 H            1    LIG   0.0000
  25 H            6.4268     0.4705    -3.0323 H            1    LIG   0.0000
  26 H            6.9585     2.7294    -2.4854 H            1    LIG   0.0000
  27 H            2.6521    -0.3927    -0.4561 H            1    LIG   0.0000
  28 H            3.6913    -0.5543     0.7931 H            1    LIG   0.0000
@<TRIPOS>BOND
   1        1        2 am
   2        2        3 2
   3        2        4 am
   4        4        5 1
   5        5        6 1
   6        6        7 1
   7        7        8 ar
   8        8        9 ar
   9        9       10 ar
  10       10       11 ar
  11       11       12 ar
  12       12        7 ar
  13       12       13 1
  14       13       14 1
  15       13       15 1
  16       13       16 1
  17        8       17 1
  18       17        4 1
  19        1       18 1
  20        1       19 1
  21        5       20 1
  22        5       21 1
  23        6       22 1
  24        6       23 1
  25        9       24 1
  26       10       25 1
  27       11       26 1
  28       17       27 1
  29       17       28 1

@<TRIPOS>MOLECULE

  28   29
SMALL
USER_CHARGES
@<TRIPOS>ATOM
   1 N1           0.3150    -0.1010     0.5579 N.am         1    LIG   0.0000
   2 C2           1.0000     1.0000     1.0000 C.2          1    LIG   0.0000
   3 O3           0.4000     1.9644     1.3873 O.2          1    LIG   0.0000
   4 N4           2.4013     1.0000     1.0000 N.am         1    LIG   0.0000
   5 C5           3.2495     2.1344     0.6373 C.3          1    LIG   0.0000
   6 C6           3.7355     1.7959    -0.7627 C.3          1    LIG   0.0000
   7 C7           4.5521     0.5148    -0.7056 C.ar         1    LIG   0.0000
   8 C8           4.2695    -0.4048     0.3000 C.ar         1    LIG   0.0000
   9 C9           4.9506    -1.6130     0.3522 C.ar         1    LIG   0.0000
  10 C10          5.9356    -1.8863    -0.5889 C.ar         1    LIG   0.0000
  11 C11          6.2406    -0.9544    -1.5734 C.ar         1    LIG   0.0000
  12 C12          5.5551     0.2523    -1.6378 C.ar         1    LIG   0.0000
  13 C13          5.9176     1.2303    -2.7465 C.3          1    LIG   0.0000
  14 F14          5.0572     1.0991    -3.7522 F            1    LIG   0.0000
  15 F15          5.8638     2.4732    -2.2763 F            1    LIG   0.0000
  16 F16          7.1485     0.9730    -3.1796 F            1    LIG   0.0000
  17 C17          3.2311    -0.1485     1.3759 C.3          1    LIG   0.0000
  18 H            0.8150    -0.9046     0.2352 H            1    LIG   0.0000
  19 H           -0.6850    -0.1010     0.5579 H            1    LIG   0.0000
  20 H            4.0192     2.2196     1.2700 H            1    LIG   0.0000
  21 H            2.7239     2.9851     0.6353 H            1    LIG   0.0000
  22 H            2.9503     1.6665    -1.3682 H            1    LIG   0.0000
  23 H            4.3047     2.5413    -1.1096 H            1    LIG   0.0000
  24 H            4.7337    -2.2825     1.0626 H            1    LIG   0.0000
  25 H            6.4268    -2.7568    -0.5576 H            1    LIG   0.0000
  26 H            6.9585    -1.1537    -2.2404 H            1    LIG   0.0000
  27 H            2.6521    -0.9574     1.4781 H            1    LIG   0.0000
  28 H            3.6913     0.0437     2.2426 H            1    LIG   0.0000
@<TRIPOS>BOND
   1        1        2 am
   2        2        3 2
   3        2        4 am
   4        4        5 1
   5        5        6 1
   6        6        7 1
   7        7        8 ar
   8        8        9 ar
   9        9       10 ar
  10       10       11 ar
  11       11       12 ar
  12       12        7 ar
  13       12       13 1
  14       13       14 1
  15       13       15 1
  16       13       16 1
  17        8       17 1
  18       17        4 1
  19        1       18 1
  20        1       19 1
  21        5       20 1
  22        5       21 1
  23        6       22 1
  24        6       23 1
  25        9       24 1
  26       10       25 1
  27       11       26 1
  28       17       27 1
  29       17       28 1

