@<TRIPOS>MOLECULE
*****
 28 29 0 0 0
SMALL
USER_CHARGES

@<TRIPOS>ATOM
      1 N1          0.3150   -0.1010    0.5579 N.am    1  LIG1        0.0000
      2 C2          1.0000    1.0000    1.0000 C.2     1  LIG1        0.0000
      3 O3          0.4000    1.9644    1.3873 O.2     1  LIG1        0.0000
      4 N4          2.3992    1.0000    1.0000 N.am    1  LIG1        0.0000
      5 C5          3.1656   -0.1574    0.5195 C.3     1  LIG1        0.0000
      6 C6          4.6018   -0.1440    0.9792 C.3     1  LIG1        0.0000
      7 C7          5.0956    1.1837    0.4433 C.3     1  LIG1        0.0000
      8 C8          4.3350    2.3091    0.6966 C.3     1  LIG1        0.0000
      9 C9          4.7632    3.5264    0.1963 C.3     1  LIG1        0.0000
     10 C10         5.9218    3.6029   -0.5685 C.3     1  LIG1        0.0000
     11 C11         6.6634    2.4536   -0.8236 C.3     1  LIG1        0.0000
     12 C12         6.2595    1.2289   -0.3090 C.3     1  LIG1        0.0000
     13 C13         7.1031    0.0026   -0.6132 C.3     1  LIG1        0.0000
     14 F14         6.4615   -0.7720   -1.4835 F       1  LIG1        0.0000
     15 F15         8.2671    0.3829   -1.1322 F       1  LIG1        0.0000
     16 F16         7.3190   -0.6767    0.5097 F       1  LIG1        0.0000
     17 C17         3.0480    2.2233    1.4912 C.3     1  LIG1        0.0000
     18 H           0.8150   -0.9046    0.2352 H       1  LIG1        0.0000
     19 H          -0.6850   -0.1010    0.5579 H       1  LIG1        0.0000
     20 H           3.1509   -0.1567   -0.4804 H       1  LIG1        0.0000
     21 H           2.7301   -0.9913    0.8586 H       1  LIG1        0.0000
     22 H           4.6637   -0.1782    1.9767 H       1  LIG1        0.0000
     23 H           5.1154   -0.9071    0.5870 H       1  LIG1        0.0000
     24 H           4.2366    4.3551    0.3858 H       1  LIG1        0.0000
     25 H           6.2220    4.4835   -0.9350 H       1  LIG1        0.0000
     26 H           7.4919    2.5099   -1.3808 H       1  LIG1        0.0000
     27 H           3.2399    2.1539    2.4702 H       1  LIG1        0.0000
     28 H           2.4721    3.0228    1.3203 H       1  LIG1        0.0000
@<TRIPOS>BOND
     1     1     2   am
     2     2     3    2
     3     2     4   am
     4     4     5    1
     5     5     6    1
     6     6     7    1
     7     7     8   ar
     8     8     9   ar
     9     9    10   ar
    10    10    11   ar
    11    11    12   ar
    12    12     7   ar
    13    12    13    1
    14    13    14    1
    15    13    15    1
    16    13    16    1
    17     8    17    1
    18    17     4    1
    19     1    18    1
    20     1    19    1
    21     5    20    1
    22     5    21    1
    23     6    22    1
    24     6    23    1
    25     9    24    1
    26    10    25    1
    27    11    26    1
    28    17    27    1
    29    17    28    1
