@<TRIPOS>MOLECULE
*****
 28 29 0 0 0
SMALL
USER_CHARGES

@<TRIPOS>ATOM
      1 N1          0.3150   -0.1010    0.5579 N.am    1  LIG1        0.0000
      2 C2          1.0000    1.0000    1.0000 C.2     1  LIG1        0.0000
      3 O3          0.4000    1.9644    1.3873 O.2     1  LIG1        0.0000
      4 N4          2.3992    1.0000    1.0000 N.am    1  LIG1        0.0000
      5 C5          3.1656    0.4222   -0.1121 C.3     1  LIG1        0.0000
      6 C6          4.6018    0.1371    0.2487 C.3     1  LIG1        0.0000
      7 C7          5.0956    1.4986    0.6916 C.3     1  LIG1        0.0000
      8 C8          4.3350    2.1978    1.6091 C.3     1  LIG1        0.0000
      9 C9          4.7632    3.4519    2.0083 C.3     1  LIG1        0.0000
     10 C10         5.9218    4.0021    1.4716 C.3     1  LIG1        0.0000
     11 C11         6.6634    3.2857    0.5374 C.3     1  LIG1        0.0000
     12 C12         6.2595    2.0167    0.1444 C.3     1  LIG1        0.0000
     13 C13         7.1031    1.2729   -0.8769 C.3     1  LIG1        0.0000
     14 F14         6.3196    0.8120   -1.8478 F       1  LIG1        0.0000
     15 F15         8.0074    2.1008   -1.3924 F       1  LIG1        0.0000
     16 F16         7.7207    0.2547   -0.2847 F       1  LIG1        0.0000
     17 C17         3.0480    1.6213    2.1626 C.3     1  LIG1        0.0000
     18 H           0.8150   -0.9046    0.2352 H       1  LIG1        0.0000
     19 H          -0.6850   -0.1010    0.5579 H       1  LIG1        0.0000
     20 H           3.1509    1.0655   -0.8776 H       1  LIG1        0.0000
     21 H           2.7301   -0.4345   -0.3882 H       1  LIG1        0.0000
     22 H           4.6637   -0.5303    0.9909 H       1  LIG1        0.0000
     23 H           5.1154   -0.1954   -0.5423 H       1  LIG1        0.0000
     24 H           4.2366    3.9650    2.6862 H       1  LIG1        0.0000
     25 H           6.2220    4.9123    1.7568 H       1  LIG1        0.0000
     26 H           7.4919    3.6870    0.1468 H       1  LIG1        0.0000
     27 H           3.2399    0.9389    2.8679 H       1  LIG1        0.0000
     28 H           2.4721    2.3437    2.5456 H       1  LIG1        0.0000
@<TRIPOS>BOND
     1     1     2   am
     2     2     3    2
     3     2     4   am
     4     4     5    1
     5     5     6    1
     6     6     7    1
     7     7     8   ar
     8     8     9   ar
     9     9    10   ar
    10    10    11   ar
    11    11    12   ar
    12    12     7   ar
    13    12    13    1
    14    13    14    1
    15    13    15    1
    16    13    16    1
    17     8    17    1
    18    17     4    1
    19     1    18    1
    20     1    19    1
    21     5    20    1
    22     5    21    1
    23     6    22    1
    24     6    23    1
    25     9    24    1
    26    10    25    1
    27    11    26    1
    28    17    27    1
    29    17    28    1
