@<TRIPOS>MOLECULE
*****
 28 29 0 0 0
SMALL
USER_CHARGES

@<TRIPOS>ATOM
      1 N1          0.3150   -0.1010    0.5579 N.am    1  LIG1        0.0000
      2 C2          1.0000    1.0000    1.0000 C.2     1  LIG1        0.0000
      3 O3          0.4000    1.9644    1.3873 O.2     1  LIG1        0.0000
      4 N4          2.4077    1.0000    1.0000 N.am    1  LIG1        0.0000
      5 C5          3.2585    2.1142    1.4623 C.3     1  LIG1        0.0000
      6 C6          3.9300    1.7072    2.7589 C.3     1  LIG1        0.0000
      7 C7          4.7016    0.4151    2.5362 C.3     1  LIG1        0.0000
      8 C8          4.3576   -0.4590    1.5033 C.3     1  LIG1        0.0000
      9 C9          5.0892   -1.6345    1.3694 C.3     1  LIG1        0.0000
     10 C10         6.1328   -1.9334    2.2396 C.3     1  LIG1        0.0000
     11 C11         6.4634   -1.0470    3.2592 C.3     1  LIG1        0.0000
     12 C12         5.7488    0.1365    3.4113 C.3     1  LIG1        0.0000
     13 C13         6.1509    1.0609    4.5502 C.3     1  LIG1        0.0000
     14 F14         6.9404    0.4049    5.3959 F       1  LIG1        0.0000
     15 F15         6.8025    2.1115    4.0596 F       1  LIG1        0.0000
     16 F16         5.0614    1.4747    5.1911 F       1  LIG1        0.0000
     17 C17         3.2218   -0.1330    0.5450 C.3     1  LIG1        0.0000
     18 H           0.8150   -0.9046    0.2352 H       1  LIG1        0.0000
     19 H          -0.6850   -0.1010    0.5579 H       1  LIG1        0.0000
     20 H           2.6956    2.9264    1.6154 H       1  LIG1        0.0000
     21 H           3.9536    2.3156    0.7721 H       1  LIG1        0.0000
     22 H           4.5599    2.4272    3.0502 H       1  LIG1        0.0000
     23 H           3.2363    1.5654    3.4651 H       1  LIG1        0.0000
     24 H           4.8615   -2.2749    0.6359 H       1  LIG1        0.0000
     25 H           6.6450   -2.7855    2.1321 H       1  LIG1        0.0000
     26 H           7.2151   -1.2606    3.8831 H       1  LIG1        0.0000
     27 H           3.6109    0.0906   -0.3486 H       1  LIG1        0.0000
     28 H           2.6332   -0.9369    0.4606 H       1  LIG1        0.0000
@<TRIPOS>BOND
     1     1     2   am
     2     2     3    2
     3     2     4   am
     4     4     5    1
     5     5     6    1
     6     6     7    1
     7     7     8   ar
     8     8     9   ar
     9     9    10   ar
    10    10    11   ar
    11    11    12   ar
    12    12     7   ar
    13    12    13    1
    14    13    14    1
    15    13    15    1
    16    13    16    1
    17     8    17    1
    18    17     4    1
    19     1    18    1
    20     1    19    1
    21     5    20    1
    22     5    21    1
    23     6    22    1
    24     6    23    1
    25     9    24    1
    26    10    25    1
    27    11    26    1
    28    17    27    1
    29    17    28    1
