@<TRIPOS>MOLECULE
*****
 28 29 0 0 0
SMALL
USER_CHARGES

@<TRIPOS>ATOM
      1 N1          0.3150   -0.1010    0.5579 N.am    1  LIG1        0.0000
      2 C2          1.0000    1.0000    1.0000 C.2     1  LIG1        0.0000
      3 O3          0.4000    1.9644    1.3873 O.2     1  LIG1        0.0000
      4 N4          2.4017    1.0000    1.0000 N.am    1  LIG1        0.0000
      5 C5          3.1101    2.2879    1.0403 C.3     1  LIG1        0.0000
      6 C6          4.5625    2.2047    0.5888 C.3     1  LIG1        0.0000
      7 C7          4.8807    1.0040   -0.2928 C.3     1  LIG1        0.0000
      8 C8          4.1898   -0.1896   -0.0822 C.3     1  LIG1        0.0000
      9 C9          4.4662   -1.3396   -0.8139 C.3     1  LIG1        0.0000
     10 C10         5.4267   -1.2612   -1.8161 C.3     1  LIG1        0.0000
     11 C11         6.1071   -0.0742   -2.0707 C.3     1  LIG1        0.0000
     12 C12         5.8378    1.0561   -1.3074 C.3     1  LIG1        0.0000
     13 C13         6.6217    2.3211   -1.6190 C.3     1  LIG1        0.0000
     14 F14         7.1539    2.2248   -2.8341 F       1  LIG1        0.0000
     15 F15         5.8060    3.3705   -1.5742 F       1  LIG1        0.0000
     16 F16         7.5911    2.4743   -0.7214 F       1  LIG1        0.0000
     17 C17         3.0853   -0.3033    0.9572 C.3     1  LIG1        0.0000
     18 H           0.8150   -0.9046    0.2352 H       1  LIG1        0.0000
     19 H          -0.6850   -0.1010    0.5579 H       1  LIG1        0.0000
     20 H           3.0911    2.6290    1.9801 H       1  LIG1        0.0000
     21 H           2.6304    2.9304    0.4427 H       1  LIG1        0.0000
     22 H           4.7783    3.0354    0.0755 H       1  LIG1        0.0000
     23 H           5.1408    2.1565    1.4033 H       1  LIG1        0.0000
     24 H           3.9883   -2.1975   -0.6249 H       1  LIG1        0.0000
     25 H           5.6323   -2.0722   -2.3638 H       1  LIG1        0.0000
     26 H           6.7886   -0.0344   -2.8015 H       1  LIG1        0.0000
     27 H           2.4402   -1.0215    0.6963 H       1  LIG1        0.0000
     28 H           3.4764   -0.5159    1.8527 H       1  LIG1        0.0000
@<TRIPOS>BOND
     1     1     2   am
     2     2     3    2
     3     2     4   am
     4     4     5    1
     5     5     6    1
     6     6     7    1
     7     7     8   ar
     8     8     9   ar
     9     9    10   ar
    10    10    11   ar
    11    11    12   ar
    12    12     7   ar
    13    12    13    1
    14    13    14    1
    15    13    15    1
    16    13    16    1
    17     8    17    1
    18    17     4    1
    19     1    18    1
    20     1    19    1
    21     5    20    1
    22     5    21    1
    23     6    22    1
    24     6    23    1
    25     9    24    1
    26    10    25    1
    27    11    26    1
    28    17    27    1
    29    17    28    1
