@<TRIPOS>MOLECULE
*****
 28 29 0 0 0
SMALL
USER_CHARGES

@<TRIPOS>ATOM
      1 N1          0.3150   -0.1010    0.5579 N.am    1  LIG1        0.0000
      2 C2          1.0000    1.0000    1.0000 C.2     1  LIG1        0.0000
      3 O3          0.4000    1.9644    1.3873 O.2     1  LIG1        0.0000
      4 N4          2.4077    1.0000    1.0000 N.am    1  LIG1        0.0000
      5 C5          3.2585    2.2051    1.0533 C.3     1  LIG1        0.0000
      6 C6          3.9300    2.2661    2.4110 C.3     1  LIG1        0.0000
      7 C7          4.7016    0.9758    2.6436 C.3     1  LIG1        0.0000
      8 C8          4.3576   -0.1989    1.9720 C.3     1  LIG1        0.0000
      9 C9          5.0892   -1.3493    2.2482 C.3     1  LIG1        0.0000
     10 C10         6.1328   -1.3326    3.1682 C.3     1  LIG1        0.0000
     11 C11         6.4634   -0.1508    3.8231 C.3     1  LIG1        0.0000
     12 C12         5.7488    1.0133    3.5612 C.3     1  LIG1        0.0000
     13 C13         6.1509    2.2715    4.3153 C.3     1  LIG1        0.0000
     14 F14         7.3891    2.1329    4.7805 F       1  LIG1        0.0000
     15 F15         6.1003    3.3161    3.4936 F       1  LIG1        0.0000
     16 F16         5.3148    2.4658    5.3312 F       1  LIG1        0.0000
     17 C17         3.2218   -0.2203    0.9600 C.3     1  LIG1        0.0000
     18 H           0.8150   -0.9046    0.2352 H       1  LIG1        0.0000
     19 H          -0.6850   -0.1010    0.5579 H       1  LIG1        0.0000
     20 H           2.6956    3.0207    0.9194 H       1  LIG1        0.0000
     21 H           3.9536    2.1583    0.3359 H       1  LIG1        0.0000
     22 H           4.5599    3.0424    2.4384 H       1  LIG1        0.0000
     23 H           3.2363    2.3744    3.1230 H       1  LIG1        0.0000
     24 H           4.8615   -2.2019    1.7779 H       1  LIG1        0.0000
     25 H           6.6450   -2.1700    3.3585 H       1  LIG1        0.0000
     26 H           7.2151   -0.1382    4.4824 H       1  LIG1        0.0000
     27 H           3.6109   -0.3158    0.0437 H       1  LIG1        0.0000
     28 H           2.6332   -1.0046    1.1556 H       1  LIG1        0.0000
@<TRIPOS>BOND
     1     1     2   am
     2     2     3    2
     3     2     4   am
     4     4     5    1
     5     5     6    1
     6     6     7    1
     7     7     8   ar
     8     8     9   ar
     9     9    10   ar
    10    10    11   ar
    11    11    12   ar
    12    12     7   ar
    13    12    13    1
    14    13    14    1
    15    13    15    1
    16    13    16    1
    17     8    17    1
    18    17     4    1
    19     1    18    1
    20     1    19    1
    21     5    20    1
    22     5    21    1
    23     6    22    1
    24     6    23    1
    25     9    24    1
    26    10    25    1
    27    11    26    1
    28    17    27    1
    29    17    28    1
