@<TRIPOS>MOLECULE
*****
 28 29 0 0 0
SMALL
USER_CHARGES

@<TRIPOS>ATOM
      1 N1          0.3150   -0.1010    0.5579 N.am    1  LIG1        0.0000
      2 C2          1.0000    1.0000    1.0000 C.2     1  LIG1        0.0000
      3 O3          0.4000    1.9644    1.3873 O.2     1  LIG1        0.0000
      4 N4          2.3992    1.0000    1.0000 N.am    1  LIG1        0.0000
      5 C5          3.1656    2.1955    0.6241 C.3     1  LIG1        0.0000
      6 C6          4.6018    1.8897    0.2806 C.3     1  LIG1        0.0000
      7 C7          5.0956    1.2171    1.5446 C.3     1  LIG1        0.0000
      8 C8          4.3350    0.1922    2.0738 C.3     1  LIG1        0.0000
      9 C9          4.7632   -0.4187    3.2396 C.3     1  LIG1        0.0000
     10 C10         5.9218    0.0143    3.8746 C.3     1  LIG1        0.0000
     11 C11         6.6634    1.0587    3.3313 C.3     1  LIG1        0.0000
     12 C12         6.2595    1.6661    2.1498 C.3     1  LIG1        0.0000
     13 C13         7.1031    2.8010    1.5947 C.3     1  LIG1        0.0000
     14 F14         7.3038    2.6091    0.2940 F       1  LIG1        0.0000
     15 F15         6.4697    3.9558    1.7798 F       1  LIG1        0.0000
     16 F16         8.2743    2.8319    2.2242 F       1  LIG1        0.0000
     17 C17         3.0480   -0.2529    1.4100 C.3     1  LIG1        0.0000
     18 H           0.8150   -0.9046    0.2352 H       1  LIG1        0.0000
     19 H          -0.6850   -0.1010    0.5579 H       1  LIG1        0.0000
     20 H           3.1509    2.8377    1.3906 H       1  LIG1        0.0000
     21 H           2.7301    2.6163   -0.1717 H       1  LIG1        0.0000
     22 H           4.6637    1.2747   -0.5055 H       1  LIG1        0.0000
     23 H           5.1154    2.7264    0.0905 H       1  LIG1        0.0000
     24 H           4.2366   -1.1754    3.6271 H       1  LIG1        0.0000
     25 H           6.2220   -0.4247    4.7215 H       1  LIG1        0.0000
     26 H           7.4919    1.3737    3.7944 H       1  LIG1        0.0000
     27 H           3.2399   -0.8289    0.6155 H       1  LIG1        0.0000
     28 H           2.4721   -0.7555    2.0548 H       1  LIG1        0.0000
@<TRIPOS>BOND
     1     1     2   am
     2     2     3    2
     3     2     4   am
     4     4     5    1
     5     5     6    1
     6     6     7    1
     7     7     8   ar
     8     8     9   ar
     9     9    10   ar
    10    10    11   ar
    11    11    12   ar
    12    12     7   ar
    13    12    13    1
    14    13    14    1
    15    13    15    1
    16    13    16    1
    17     8    17    1
    18    17     4    1
    19     1    18    1
    20     1    19    1
    21     5    20    1
    22     5    21    1
    23     6    22    1
    24     6    23    1
    25     9    24    1
    26    10    25    1
    27    11    26    1
    28    17    27    1
    29    17    28    1
