@<TRIPOS>MOLECULE
*****
 28 29 0 0 0
SMALL
USER_CHARGES

@<TRIPOS>ATOM
      1 N1          0.3150   -0.1010    0.5579 N.am    1  LIG1        0.0000
      2 C2          1.0000    1.0000    1.0000 C.2     1  LIG1        0.0000
      3 O3          0.4000    1.9644    1.3873 O.2     1  LIG1        0.0000
      4 N4          2.4077    1.0000    1.0000 N.am    1  LIG1        0.0000
      5 C5          3.2585    0.4436   -0.0703 C.3     1  LIG1        0.0000
      6 C6          3.9300    1.5889   -0.8020 C.3     1  LIG1        0.0000
      7 C7          4.7016    2.4356    0.1992 C.3     1  LIG1        0.0000
      8 C8          4.3576    2.4412    1.5523 C.3     1  LIG1        0.0000
      9 C9          5.0892    3.2556    2.4105 C.3     1  LIG1        0.0000
     10 C10         6.1328    4.0440    1.9360 C.3     1  LIG1        0.0000
     11 C11         6.4634    4.0203    0.5851 C.3     1  LIG1        0.0000
     12 C12         5.7488    3.2114   -0.2921 C.3     1  LIG1        0.0000
     13 C13         6.1509    3.2354   -1.7588 C.3     1  LIG1        0.0000
     14 F14         5.0618    3.1593   -2.5184 F       1  LIG1        0.0000
     15 F15         6.7973    4.3673   -2.0228 F       1  LIG1        0.0000
     16 F16         6.9451    2.2004   -2.0177 F       1  LIG1        0.0000
     17 C17         3.2218    1.5755    2.0768 C.3     1  LIG1        0.0000
     18 H           0.8150   -0.9046    0.2352 H       1  LIG1        0.0000
     19 H          -0.6850   -0.1010    0.5579 H       1  LIG1        0.0000
     20 H           2.6956   -0.0802   -0.7097 H       1  LIG1        0.0000
     21 H           3.9536   -0.1543    0.3289 H       1  LIG1        0.0000
     22 H           4.5599    1.2245   -1.4879 H       1  LIG1        0.0000
     23 H           3.2363    2.1514   -1.2518 H       1  LIG1        0.0000
     24 H           4.8615    3.2747    3.3840 H       1  LIG1        0.0000
     25 H           6.6450    4.6276    2.5660 H       1  LIG1        0.0000
     26 H           7.2151    4.5850    0.2445 H       1  LIG1        0.0000
     27 H           3.6109    0.8298    2.6177 H       1  LIG1        0.0000
     28 H           2.6332    2.1371    2.6583 H       1  LIG1        0.0000
@<TRIPOS>BOND
     1     1     2   am
     2     2     3    2
     3     2     4   am
     4     4     5    1
     5     5     6    1
     6     6     7    1
     7     7     8   ar
     8     8     9   ar
     9     9    10   ar
    10    10    11   ar
    11    11    12   ar
    12    12     7   ar
    13    12    13    1
    14    13    14    1
    15    13    15    1
    16    13    16    1
    17     8    17    1
    18    17     4    1
    19     1    18    1
    20     1    19    1
    21     5    20    1
    22     5    21    1
    23     6    22    1
    24     6    23    1
    25     9    24    1
    26    10    25    1
    27    11    26    1
    28    17    27    1
    29    17    28    1
