@<TRIPOS>MOLECULE
*****
 28 29 0 0 0
SMALL
USER_CHARGES

@<TRIPOS>ATOM
      1 N1          0.3150   -0.1010    0.5579 N.am    1  LIG1        0.0000
      2 C2          1.0000    1.0000    1.0000 C.2     1  LIG1        0.0000
      3 O3          0.4000    1.9644    1.3873 O.2     1  LIG1        0.0000
      4 N4          2.4013    1.0000    1.0000 N.am    1  LIG1        0.0000
      5 C5          3.2495    0.4458   -0.0542 C.3     1  LIG1        0.0000
      6 C6          3.7355   -0.8741    0.5223 C.3     1  LIG1        0.0000
      7 C7          4.5521   -0.5954    1.7740 C.3     1  LIG1        0.0000
      8 C8          4.2695    0.5546    2.5050 C.3     1  LIG1        0.0000
      9 C9          4.9506    0.8158    3.6858 C.3     1  LIG1        0.0000
     10 C10         5.9356   -0.0636    4.1184 C.3     1  LIG1        0.0000
     11 C11         6.2406   -1.1950    3.3716 C.3     1  LIG1        0.0000
     12 C12         5.5551   -1.4679    2.1944 C.3     1  LIG1        0.0000
     13 C13         5.9176   -2.7295    1.4238 C.3     1  LIG1        0.0000
     14 F14         4.9282   -3.0401    0.5911 F       1  LIG1        0.0000
     15 F15         7.0323   -2.5199    0.7292 F       1  LIG1        0.0000
     16 F16         6.1091   -3.7310    2.2778 F       1  LIG1        0.0000
     17 C17         3.2311    1.5696    2.0658 C.3     1  LIG1        0.0000
     18 H           0.8150   -0.9046    0.2352 H       1  LIG1        0.0000
     19 H          -0.6850   -0.1010    0.5579 H       1  LIG1        0.0000
     20 H           4.0192    1.0541   -0.2480 H       1  LIG1        0.0000
     21 H           2.7239    0.2961   -0.8916 H       1  LIG1        0.0000
     22 H           2.9503   -1.4480    0.7549 H       1  LIG1        0.0000
     23 H           4.3047   -1.3452   -0.1516 H       1  LIG1        0.0000
     24 H           4.7337    1.6316    4.2218 H       1  LIG1        0.0000
     25 H           6.4268    0.1184    4.9702 H       1  LIG1        0.0000
     26 H           6.9585   -1.8172    3.6837 H       1  LIG1        0.0000
     27 H           2.6521    1.8107    2.8446 H       1  LIG1        0.0000
     28 H           3.6913    2.3898    1.7260 H       1  LIG1        0.0000
@<TRIPOS>BOND
     1     1     2   am
     2     2     3    2
     3     2     4   am
     4     4     5    1
     5     5     6    1
     6     6     7    1
     7     7     8   ar
     8     8     9   ar
     9     9    10   ar
    10    10    11   ar
    11    11    12   ar
    12    12     7   ar
    13    12    13    1
    14    13    14    1
    15    13    15    1
    16    13    16    1
    17     8    17    1
    18    17     4    1
    19     1    18    1
    20     1    19    1
    21     5    20    1
    22     5    21    1
    23     6    22    1
    24     6    23    1
    25     9    24    1
    26    10    25    1
    27    11    26    1
    28    17    27    1
    29    17    28    1
