@<TRIPOS>MOLECULE
*****
 28 29 0 0 0
SMALL
USER_CHARGES

@<TRIPOS>ATOM
      1 N1          0.3150   -0.1010    0.5579 N.am    1  LIG1        0.0000
      2 C2          1.0000    1.0000    1.0000 C.2     1  LIG1        0.0000
      3 O3          0.4000    1.9644    1.3873 O.2     1  LIG1        0.0000
      4 N4          2.4013    1.0000    1.0000 N.am    1  LIG1        0.0000
      5 C5          3.2495    2.1344    0.6373 C.3     1  LIG1        0.0000
      6 C6          3.7355    1.7959   -0.7627 C.3     1  LIG1        0.0000
      7 C7          4.5521    0.5148   -0.7056 C.3     1  LIG1        0.0000
      8 C8          4.2695   -0.4048    0.3000 C.3     1  LIG1        0.0000
      9 C9          4.9506   -1.6130    0.3522 C.3     1  LIG1        0.0000
     10 C10         5.9356   -1.8863   -0.5889 C.3     1  LIG1        0.0000
     11 C11         6.2406   -0.9544   -1.5734 C.3     1  LIG1        0.0000
     12 C12         5.5551    0.2523   -1.6378 C.3     1  LIG1        0.0000
     13 C13         5.9176    1.2303   -2.7465 C.3     1  LIG1        0.0000
     14 F14         5.0572    1.0991   -3.7522 F       1  LIG1        0.0000
     15 F15         5.8638    2.4732   -2.2763 F       1  LIG1        0.0000
     16 F16         7.1485    0.9730   -3.1796 F       1  LIG1        0.0000
     17 C17         3.2311   -0.1485    1.3759 C.3     1  LIG1        0.0000
     18 H           0.8150   -0.9046    0.2352 H       1  LIG1        0.0000
     19 H          -0.6850   -0.1010    0.5579 H       1  LIG1        0.0000
     20 H           4.0192    2.2196    1.2700 H       1  LIG1        0.0000
     21 H           2.7239    2.9851    0.6353 H       1  LIG1        0.0000
     22 H           2.9503    1.6665   -1.3682 H       1  LIG1        0.0000
     23 H           4.3047    2.5413   -1.1096 H       1  LIG1        0.0000
     24 H           4.7337   -2.2825    1.0626 H       1  LIG1        0.0000
     25 H           6.4268   -2.7568   -0.5576 H       1  LIG1        0.0000
     26 H           6.9585   -1.1537   -2.2404 H       1  LIG1        0.0000
     27 H           2.6521   -0.9574    1.4781 H       1  LIG1        0.0000
     28 H           3.6913    0.0437    2.2426 H       1  LIG1        0.0000
@<TRIPOS>BOND
     1     1     2   am
     2     2     3    2
     3     2     4   am
     4     4     5    1
     5     5     6    1
     6     6     7    1
     7     7     8   ar
     8     8     9   ar
     9     9    10   ar
    10    10    11   ar
    11    11    12   ar
    12    12     7   ar
    13    12    13    1
    14    13    14    1
    15    13    15    1
    16    13    16    1
    17     8    17    1
    18    17     4    1
    19     1    18    1
    20     1    19    1
    21     5    20    1
    22     5    21    1
    23     6    22    1
    24     6    23    1
    25     9    24    1
    26    10    25    1
    27    11    26    1
    28    17    27    1
    29    17    28    1
