@<TRIPOS>MOLECULE
*****
 28 29 0 0 0
SMALL
USER_CHARGES

@<TRIPOS>ATOM
      1 N1          0.3150   -0.1010    0.5579 N.am    1  LIG1        0.0000
      2 C2          1.0000    1.0000    1.0000 C.2     1  LIG1        0.0000
      3 O3          0.4000    1.9644    1.3873 O.2     1  LIG1        0.0000
      4 N4          2.4013    1.0000    1.0000 N.am    1  LIG1        0.0000
      5 C5          3.2495    1.8813    1.8011 C.3     1  LIG1        0.0000
      6 C6          3.7355    2.9245    0.8079 C.3     1  LIG1        0.0000
      7 C7          4.5521    2.2345   -0.2730 C.3     1  LIG1        0.0000
      8 C8          4.2695    0.9038   -0.5666 C.3     1  LIG1        0.0000
      9 C9          4.9506    0.2545   -1.5868 C.3     1  LIG1        0.0000
     10 C10         5.9356    0.9329   -2.2941 C.3     1  LIG1        0.0000
     11 C11         6.2406    2.2515   -1.9793 C.3     1  LIG1        0.0000
     12 C12         5.5551    2.9106   -0.9664 C.3     1  LIG1        0.0000
     13 C13         5.9176    4.3597   -0.6738 C.3     1  LIG1        0.0000
     14 F14         7.1503    4.6048   -1.1089 F       1  LIG1        0.0000
     15 F15         5.0601    5.1651   -1.2942 F       1  LIG1        0.0000
     16 F16         5.8591    4.5753    0.6373 F       1  LIG1        0.0000
     17 C17         3.2311    0.1002    0.1933 C.3     1  LIG1        0.0000
     18 H           0.8150   -0.9046    0.2352 H       1  LIG1        0.0000
     19 H          -0.6850   -0.1010    0.5579 H       1  LIG1        0.0000
     20 H           4.0192    1.3759    2.1912 H       1  LIG1        0.0000
     21 H           2.7239    2.3084    2.5368 H       1  LIG1        0.0000
     22 H           2.9503    3.3842    0.3931 H       1  LIG1        0.0000
     23 H           4.3047    3.5976    1.2800 H       1  LIG1        0.0000
     24 H           4.7337   -0.6955   -1.8115 H       1  LIG1        0.0000
     25 H           6.4268    0.4705   -3.0323 H       1  LIG1        0.0000
     26 H           6.9585    2.7294   -2.4854 H       1  LIG1        0.0000
     27 H           2.6521   -0.3927   -0.4561 H       1  LIG1        0.0000
     28 H           3.6913   -0.5543    0.7931 H       1  LIG1        0.0000
@<TRIPOS>BOND
     1     1     2   am
     2     2     3    2
     3     2     4   am
     4     4     5    1
     5     5     6    1
     6     6     7    1
     7     7     8   ar
     8     8     9   ar
     9     9    10   ar
    10    10    11   ar
    11    11    12   ar
    12    12     7   ar
    13    12    13    1
    14    13    14    1
    15    13    15    1
    16    13    16    1
    17     8    17    1
    18    17     4    1
    19     1    18    1
    20     1    19    1
    21     5    20    1
    22     5    21    1
    23     6    22    1
    24     6    23    1
    25     9    24    1
    26    10    25    1
    27    11    26    1
    28    17    27    1
    29    17    28    1
