@<TRIPOS>MOLECULE
*****
 28 29 0 0 0
SMALL
USER_CHARGES

@<TRIPOS>ATOM
      1 N1          0.3150   -0.1010    0.5579 N.am    1  LIG1        0.0000
      2 C2          1.0000    1.0000    1.0000 C.2     1  LIG1        0.0000
      3 O3          0.4000    1.9644    1.3873 O.2     1  LIG1        0.0000
      4 N4          2.4017    1.0000    1.0000 N.am    1  LIG1        0.0000
      5 C5          3.1101    0.3909   -0.1355 C.3     1  LIG1        0.0000
      6 C6          4.5625    0.0415    0.1623 C.3     1  LIG1        0.0000
      7 C7          4.8807   -0.1216    1.6430 C.3     1  LIG1        0.0000
      8 C8          4.1898    0.6576    2.5713 C.3     1  LIG1        0.0000
      9 C9          4.4662    0.5989    3.9332 C.3     1  LIG1        0.0000
     10 C10         5.4267   -0.3082    4.3663 C.3     1  LIG1        0.0000
     11 C11         6.1071   -1.1222    3.4657 C.3     1  LIG1        0.0000
     12 C12         5.8378   -1.0263    2.1051 C.3     1  LIG1        0.0000
     13 C13         6.6217   -1.9287    1.1655 C.3     1  LIG1        0.0000
     14 F14         5.8105   -2.3976    0.2216 F       1  LIG1        0.0000
     15 F15         7.6043   -1.2332    0.6000 F       1  LIG1        0.0000
     16 F16         7.1362   -2.9445    1.8527 F       1  LIG1        0.0000
     17 C17         3.0853    1.6146    2.1501 C.3     1  LIG1        0.0000
     18 H           0.8150   -0.9046    0.2352 H       1  LIG1        0.0000
     19 H          -0.6850   -0.1010    0.5579 H       1  LIG1        0.0000
     20 H           3.0911    1.0343   -0.9008 H       1  LIG1        0.0000
     21 H           2.6304   -0.4479   -0.3931 H       1  LIG1        0.0000
     22 H           4.7783   -0.8183   -0.3004 H       1  LIG1        0.0000
     23 H           5.1408    0.7710   -0.2032 H       1  LIG1        0.0000
     24 H           3.9883    1.1915    4.5815 H       1  LIG1        0.0000
     25 H           5.6323   -0.3770    5.3425 H       1  LIG1        0.0000
     26 H           6.7886   -1.7749    3.7966 H       1  LIG1        0.0000
     27 H           2.4402    1.7477    2.9025 H       1  LIG1        0.0000
     28 H           3.4764    2.4964    1.8865 H       1  LIG1        0.0000
@<TRIPOS>BOND
     1     1     2   am
     2     2     3    2
     3     2     4   am
     4     4     5    1
     5     5     6    1
     6     6     7    1
     7     7     8   ar
     8     8     9   ar
     9     9    10   ar
    10    10    11   ar
    11    11    12   ar
    12    12     7   ar
    13    12    13    1
    14    13    14    1
    15    13    15    1
    16    13    16    1
    17     8    17    1
    18    17     4    1
    19     1    18    1
    20     1    19    1
    21     5    20    1
    22     5    21    1
    23     6    22    1
    24     6    23    1
    25     9    24    1
    26    10    25    1
    27    11    26    1
    28    17    27    1
    29    17    28    1
