@<TRIPOS>MOLECULE
*****
 28 29 0 0 0
SMALL
USER_CHARGES

@<TRIPOS>ATOM
      1 N1          0.3150   -0.1010    0.5579 N.am    1  LIG1        0.0000
      2 C2          1.0000    1.0000    1.0000 C.2     1  LIG1        0.0000
      3 O3          0.4000    1.9644    1.3873 O.2     1  LIG1        0.0000
      4 N4          2.4077    1.0000    1.0000 N.am    1  LIG1        0.0000
      5 C5          3.2585   -0.1142    0.5377 C.3     1  LIG1        0.0000
      6 C6          3.9300    0.2928   -0.7589 C.3     1  LIG1        0.0000
      7 C7          4.7016    1.5849   -0.5362 C.3     1  LIG1        0.0000
      8 C8          4.3576    2.4590    0.4967 C.3     1  LIG1        0.0000
      9 C9          5.0892    3.6345    0.6306 C.3     1  LIG1        0.0000
     10 C10         6.1328    3.9334   -0.2396 C.3     1  LIG1        0.0000
     11 C11         6.4634    3.0470   -1.2592 C.3     1  LIG1        0.0000
     12 C12         5.7488    1.8635   -1.4113 C.3     1  LIG1        0.0000
     13 C13         6.1509    0.9391   -2.5502 C.3     1  LIG1        0.0000
     14 F14         5.1131    0.7585   -3.3622 F       1  LIG1        0.0000
     15 F15         7.1559    1.4841   -3.2298 F       1  LIG1        0.0000
     16 F16         6.5353   -0.2338   -2.0546 F       1  LIG1        0.0000
     17 C17         3.2218    2.1330    1.4550 C.3     1  LIG1        0.0000
     18 H           0.8150   -0.9046    0.2352 H       1  LIG1        0.0000
     19 H          -0.6850   -0.1010    0.5579 H       1  LIG1        0.0000
     20 H           2.6956   -0.9264    0.3846 H       1  LIG1        0.0000
     21 H           3.9536   -0.3156    1.2279 H       1  LIG1        0.0000
     22 H           4.5599   -0.4272   -1.0502 H       1  LIG1        0.0000
     23 H           3.2363    0.4346   -1.4651 H       1  LIG1        0.0000
     24 H           4.8615    4.2749    1.3641 H       1  LIG1        0.0000
     25 H           6.6450    4.7855   -0.1321 H       1  LIG1        0.0000
     26 H           7.2151    3.2606   -1.8831 H       1  LIG1        0.0000
     27 H           3.6109    1.9094    2.3486 H       1  LIG1        0.0000
     28 H           2.6332    2.9369    1.5394 H       1  LIG1        0.0000
@<TRIPOS>BOND
     1     1     2   am
     2     2     3    2
     3     2     4   am
     4     4     5    1
     5     5     6    1
     6     6     7    1
     7     7     8   ar
     8     8     9   ar
     9     9    10   ar
    10    10    11   ar
    11    11    12   ar
    12    12     7   ar
    13    12    13    1
    14    13    14    1
    15    13    15    1
    16    13    16    1
    17     8    17    1
    18    17     4    1
    19     1    18    1
    20     1    19    1
    21     5    20    1
    22     5    21    1
    23     6    22    1
    24     6    23    1
    25     9    24    1
    26    10    25    1
    27    11    26    1
    28    17    27    1
    29    17    28    1
