@<TRIPOS>MOLECULE

  48   52
SMALL
USER_CHARGES
@<TRIPOS>ATOM
   1 C1           6.4852     5.7051     0.0262 C.3          1    LIG   0.0000
   2 C2           5.6758     4.4186     0.0036 C.ar         1    LIG   0.0000
   3 C3           6.3260     3.1888    -0.0409 C.ar         1    LIG   0.0000
   4 C4           5.6124     1.9937    -0.0621 C.ar         1    LIG   0.0000
   5 N5           6.2388     0.8065    -0.1069 N.ar         1    LIG   0.0000
   6 C6           5.5674    -0.3576    -0.1286 C.ar         1    LIG   0.0000
   7 C7           6.2504    -1.6361    -0.1767 C.ar         1    LIG   0.0000
   8 C8           7.6407    -1.6731    -0.2015 C.ar         1    LIG   0.0000
   9 C9           8.2874    -2.9037    -0.2483 C.ar         1    LIG   0.0000
  10 C10          7.5447    -4.0803    -0.2696 C.ar         1    LIG   0.0000
  11 C11          6.1546    -4.0338    -0.2443 C.ar         1    LIG   0.0000
  12 C12          5.4998    -2.8071    -0.1981 C.ar         1    LIG   0.0000
  13 C13          4.1774    -0.3774    -0.1050 C.ar         1    LIG   0.0000
  14 C14          3.5047     0.8381    -0.0596 C.ar         1    LIG   0.0000
  15 C15          2.0542     0.7920    -0.0365 C.2          1    LIG   0.0000
  16 N16          1.3290    -0.3020    -0.0552 N.2          1    LIG   0.0000
  17 N17          0.0673     0.0617    -0.0245 N.2          1    LIG   0.0000
  18 C18          0.0360     1.3714     0.0118 C.2          1    LIG   0.0000
  19 C19         -1.1676     2.1839     0.0532 C.2          1    LIG   0.0000
  20 C20         -1.2143     3.5947     0.0935 C.2          1    LIG   0.0000
  21 N21         -2.4886     3.9126     0.1156 N.2          1    LIG   0.0000
  22 N22         -3.2370     2.8314     0.1009 N.pl3        1    LIG   0.0000
  23 C23         -4.7059     2.7796     0.1260 C.3          1    LIG   0.0000
  24 C24         -2.4476     1.7221     0.0584 C.2          1    LIG   0.0000
  25 O25          1.2628     1.8358     0.0059 O.2          1    LIG   0.0000
  26 C26          4.2196     2.0351    -0.0382 C.ar         1    LIG   0.0000
  27 C27          3.5821     3.2733     0.0077 C.ar         1    LIG   0.0000
  28 C28          4.2863     4.4706     0.0278 C.ar         1    LIG   0.0000
  29 C29          3.5307     5.7888     0.0771 C.3          1    LIG   0.0000
  30 H            7.4606     5.4857     0.0041 H            1    LIG   0.0000
  31 H            6.2504     6.2607    -0.7714 H            1    LIG   0.0000
  32 H            6.2771     6.2152     0.8607 H            1    LIG   0.0000
  33 H            7.3256     3.1631    -0.0581 H            1    LIG   0.0000
  34 H            8.1694    -0.8245    -0.1858 H            1    LIG   0.0000
  35 H            9.2865    -2.9428    -0.2667 H            1    LIG   0.0000
  36 H            8.0125    -4.9635    -0.3033 H            1    LIG   0.0000
  37 H            5.6258    -4.8823    -0.2594 H            1    LIG   0.0000
  38 H            4.5008    -2.7676    -0.1805 H            1    LIG   0.0000
  39 H            3.6755    -1.2422    -0.1203 H            1    LIG   0.0000
  40 H           -0.4364     4.2231     0.1031 H            1    LIG   0.0000
  41 H           -5.0062     1.8259     0.1065 H            1    LIG   0.0000
  42 H           -5.0408     3.2175     0.9603 H            1    LIG   0.0000
  43 H           -5.0701     3.2600    -0.6719 H            1    LIG   0.0000
  44 H           -2.7462     0.7680     0.0356 H            1    LIG   0.0000
  45 H            2.5826     3.3010     0.0269 H            1    LIG   0.0000
  46 H            2.5471     5.6090     0.0881 H            1    LIG   0.0000
  47 H            3.7873     6.2894     0.9038 H            1    LIG   0.0000
  48 H            3.7606     6.3351    -0.7283 H            1    LIG   0.0000
@<TRIPOS>BOND
   1        1        2 1
   2        2        3 ar
   3        3        4 ar
   4        4        5 ar
   5        5        6 ar
   6        6        7 1
   7        7        8 ar
   8        8        9 ar
   9        9       10 ar
  10       10       11 ar
  11       11       12 ar
  12       12        7 ar
  13        6       13 ar
  14       13       14 ar
  15       14       15 1
  16       15       16 2
  17       16       17 1
  18       17       18 2
  19       18       19 1
  20       19       20 1
  21       20       21 2
  22       21       22 1
  23       22       23 1
  24       22       24 1
  25       24       19 2
  26       18       25 1
  27       25       15 1
  28       14       26 ar
  29       26        4 ar
  30       26       27 ar
  31       27       28 ar
  32       28        2 ar
  33       28       29 1
  34        1       30 1
  35        1       31 1
  36        1       32 1
  37        3       33 1
  38        8       34 1
  39        9       35 1
  40       10       36 1
  41       11       37 1
  42       12       38 1
  43       13       39 1
  44       20       40 1
  45       23       41 1
  46       23       42 1
  47       23       43 1
  48       24       44 1
  49       27       45 1
  50       29       46 1
  51       29       47 1
  52       29       48 1

@<TRIPOS>MOLECULE

  48   52
SMALL
USER_CHARGES
@<TRIPOS>ATOM
   1 C1           6.4852     5.7051     0.0262 C.3          1    LIG   0.0000
   2 C2           5.6758     4.4186     0.0036 C.ar         1    LIG   0.0000
   3 C3           6.3260     3.1888    -0.0409 C.ar         1    LIG   0.0000
   4 C4           5.6124     1.9937    -0.0621 C.ar         1    LIG   0.0000
   5 N5           6.2388     0.8065    -0.1069 N.ar         1    LIG   0.0000
   6 C6           5.5674    -0.3576    -0.1286 C.ar         1    LIG   0.0000
   7 C7           6.2504    -1.6361    -0.1767 C.ar         1    LIG   0.0000
   8 C8           7.6407    -1.6731    -0.2015 C.ar         1    LIG   0.0000
   9 C9           8.2874    -2.9037    -0.2483 C.ar         1    LIG   0.0000
  10 C10          7.5447    -4.0803    -0.2696 C.ar         1    LIG   0.0000
  11 C11          6.1546    -4.0338    -0.2443 C.ar         1    LIG   0.0000
  12 C12          5.4998    -2.8071    -0.1981 C.ar         1    LIG   0.0000
  13 C13          4.1774    -0.3774    -0.1050 C.ar         1    LIG   0.0000
  14 C14          3.5047     0.8381    -0.0596 C.ar         1    LIG   0.0000
  15 C15          2.0542     0.7920    -0.0365 C.2          1    LIG   0.0000
  16 N16          1.3290    -0.3020    -0.0552 N.2          1    LIG   0.0000
  17 N17          0.0673     0.0617    -0.0245 N.2          1    LIG   0.0000
  18 C18          0.0360     1.3714     0.0118 C.2          1    LIG   0.0000
  19 C19         -1.1676     2.1839     0.0532 C.2          1    LIG   0.0000
  20 C20         -2.4944     1.7001     0.0601 C.2          1    LIG   0.0000
  21 N21         -3.2651     2.7628     0.1083 N.2          1    LIG   0.0000
  22 N22         -2.5415     3.8607     0.1238 N.pl3        1    LIG   0.0000
  23 C23         -3.0422     5.2421     0.1665 C.3          1    LIG   0.0000
  24 C24         -1.2171     3.5431     0.0937 C.2          1    LIG   0.0000
  25 O25          1.2628     1.8358     0.0059 O.2          1    LIG   0.0000
  26 C26          4.2196     2.0351    -0.0382 C.ar         1    LIG   0.0000
  27 C27          3.5821     3.2733     0.0077 C.ar         1    LIG   0.0000
  28 C28          4.2863     4.4706     0.0278 C.ar         1    LIG   0.0000
  29 C29          3.5307     5.7888     0.0771 C.3          1    LIG   0.0000
  30 H            7.4606     5.4857     0.0041 H            1    LIG   0.0000
  31 H            6.2504     6.2607    -0.7714 H            1    LIG   0.0000
  32 H            6.2771     6.2152     0.8607 H            1    LIG   0.0000
  33 H            7.3256     3.1631    -0.0581 H            1    LIG   0.0000
  34 H            8.1694    -0.8245    -0.1858 H            1    LIG   0.0000
  35 H            9.2865    -2.9428    -0.2667 H            1    LIG   0.0000
  36 H            8.0125    -4.9635    -0.3033 H            1    LIG   0.0000
  37 H            5.6258    -4.8823    -0.2594 H            1    LIG   0.0000
  38 H            4.5008    -2.7676    -0.1805 H            1    LIG   0.0000
  39 H            3.6755    -1.2422    -0.1203 H            1    LIG   0.0000
  40 H           -2.7872     0.7443     0.0338 H            1    LIG   0.0000
  41 H           -2.2694     5.8768     0.1697 H            1    LIG   0.0000
  42 H           -3.6123     5.4150    -0.6367 H            1    LIG   0.0000
  43 H           -3.5855     5.3743     0.9956 H            1    LIG   0.0000
  44 H           -0.4432     4.1764     0.1001 H            1    LIG   0.0000
  45 H            2.5826     3.3010     0.0269 H            1    LIG   0.0000
  46 H            2.5471     5.6090     0.0881 H            1    LIG   0.0000
  47 H            3.7873     6.2894     0.9038 H            1    LIG   0.0000
  48 H            3.7606     6.3351    -0.7283 H            1    LIG   0.0000
@<TRIPOS>BOND
   1        1        2 1
   2        2        3 ar
   3        3        4 ar
   4        4        5 ar
   5        5        6 ar
   6        6        7 1
   7        7        8 ar
   8        8        9 ar
   9        9       10 ar
  10       10       11 ar
  11       11       12 ar
  12       12        7 ar
  13        6       13 ar
  14       13       14 ar
  15       14       15 1
  16       15       16 2
  17       16       17 1
  18       17       18 2
  19       18       19 1
  20       19       20 1
  21       20       21 2
  22       21       22 1
  23       22       23 1
  24       22       24 1
  25       24       19 2
  26       18       25 1
  27       25       15 1
  28       14       26 ar
  29       26        4 ar
  30       26       27 ar
  31       27       28 ar
  32       28        2 ar
  33       28       29 1
  34        1       30 1
  35        1       31 1
  36        1       32 1
  37        3       33 1
  38        8       34 1
  39        9       35 1
  40       10       36 1
  41       11       37 1
  42       12       38 1
  43       13       39 1
  44       20       40 1
  45       23       41 1
  46       23       42 1
  47       23       43 1
  48       24       44 1
  49       27       45 1
  50       29       46 1
  51       29       47 1
  52       29       48 1

@<TRIPOS>MOLECULE

  48   52
SMALL
USER_CHARGES
@<TRIPOS>ATOM
   1 C1           6.4688     4.6752    -3.0711 C.3          1    LIG   0.0000
   2 C2           5.6637     3.6606    -2.2754 C.ar         1    LIG   0.0000
   3 C3           6.3182     2.7011    -1.5085 C.ar         1    LIG   0.0000
   4 C4           5.6086     1.7591    -0.7688 C.ar         1    LIG   0.0000
   5 N5           6.2393     0.8317    -0.0299 N.ar         1    LIG   0.0000
   6 C6           5.5718    -0.0861     0.6902 C.ar         1    LIG   0.0000
   7 C7           6.2593    -1.0846     1.4862 C.ar         1    LIG   0.0000
   8 C8           7.2762    -1.8411     0.9129 C.ar         1    LIG   0.0000
   9 C9           7.9296    -2.7970     1.6834 C.ar         1    LIG   0.0000
  10 C10          7.5646    -2.9884     3.0126 C.ar         1    LIG   0.0000
  11 C11          6.5467    -2.2271     3.5778 C.ar         1    LIG   0.0000
  12 C12          5.8874    -1.2693     2.8138 C.ar         1    LIG   0.0000
  13 C13          4.1816    -0.1107     0.6978 C.ar         1    LIG   0.0000
  14 C14          3.5047     0.8381    -0.0596 C.ar         1    LIG   0.0000
  15 C15          2.0542     0.7920    -0.0365 C.2          1    LIG   0.0000
  16 N16          1.3290    -0.3020    -0.0552 N.2          1    LIG   0.0000
  17 N17          0.0673     0.0617    -0.0245 N.2          1    LIG   0.0000
  18 C18          0.0360     1.3714     0.0118 C.2          1    LIG   0.0000
  19 C19         -1.1676     2.1839     0.0532 C.2          1    LIG   0.0000
  20 C20         -2.1896     2.2015    -0.9212 C.2          1    LIG   0.0000
  21 N21         -3.0834     3.0624    -0.4904 N.2          1    LIG   0.0000
  22 N22         -2.7082     3.5866     0.6558 N.pl3        1    LIG   0.0000
  23 C23         -3.4376     4.5914     1.4427 C.3          1    LIG   0.0000
  24 C24         -1.5109     3.0600     1.0362 C.2          1    LIG   0.0000
  25 O25          1.2628     1.8358     0.0059 O.2          1    LIG   0.0000
  26 C26          4.2156     1.7817    -0.8003 C.ar         1    LIG   0.0000
  27 C27          3.5737     2.7488    -1.5714 C.ar         1    LIG   0.0000
  28 C28          4.2739     3.6915    -2.3135 C.ar         1    LIG   0.0000
  29 C29          3.5136     4.7199    -3.1353 C.3          1    LIG   0.0000
  30 H            7.4450     4.5101    -2.9308 H            1    LIG   0.0000
  31 H            6.2517     4.5845    -4.0431 H            1    LIG   0.0000
  32 H            6.2392     5.5984    -2.7630 H            1    LIG   0.0000
  33 H            7.3179     2.6881    -1.4884 H            1    LIG   0.0000
  34 H            7.5345    -1.6992    -0.0427 H            1    LIG   0.0000
  35 H            8.6621    -3.3470     1.2822 H            1    LIG   0.0000
  36 H            8.0363    -3.6764     3.5641 H            1    LIG   0.0000
  37 H            6.2886    -2.3684     4.5335 H            1    LIG   0.0000
  38 H            5.1545    -0.7197     3.2147 H            1    LIG   0.0000
  39 H            3.6827    -0.7920     1.2334 H            1    LIG   0.0000
  40 H           -2.2256     1.6679    -1.7662 H            1    LIG   0.0000
  41 H           -2.9190     4.8077     2.2699 H            1    LIG   0.0000
  42 H           -3.5556     5.4209     0.8969 H            1    LIG   0.0000
  43 H           -4.3344     4.2292     1.6967 H            1    LIG   0.0000
  44 H           -0.9925     3.2727     1.8645 H            1    LIG   0.0000
  45 H            2.5740     2.7647    -1.5911 H            1    LIG   0.0000
  46 H            2.5305     4.5719    -3.0277 H            1    LIG   0.0000
  47 H            3.7488     5.6391    -2.8193 H            1    LIG   0.0000
  48 H            3.7614     4.6254    -4.0995 H            1    LIG   0.0000
@<TRIPOS>BOND
   1        1        2 1
   2        2        3 ar
   3        3        4 ar
   4        4        5 ar
   5        5        6 ar
   6        6        7 1
   7        7        8 ar
   8        8        9 ar
   9        9       10 ar
  10       10       11 ar
  11       11       12 ar
  12       12        7 ar
  13        6       13 ar
  14       13       14 ar
  15       14       15 1
  16       15       16 2
  17       16       17 1
  18       17       18 2
  19       18       19 1
  20       19       20 1
  21       20       21 2
  22       21       22 1
  23       22       23 1
  24       22       24 1
  25       24       19 2
  26       18       25 1
  27       25       15 1
  28       14       26 ar
  29       26        4 ar
  30       26       27 ar
  31       27       28 ar
  32       28        2 ar
  33       28       29 1
  34        1       30 1
  35        1       31 1
  36        1       32 1
  37        3       33 1
  38        8       34 1
  39        9       35 1
  40       10       36 1
  41       11       37 1
  42       12       38 1
  43       13       39 1
  44       20       40 1
  45       23       41 1
  46       23       42 1
  47       23       43 1
  48       24       44 1
  49       27       45 1
  50       29       46 1
  51       29       47 1
  52       29       48 1

@<TRIPOS>MOLECULE

  48   52
SMALL
USER_CHARGES
@<TRIPOS>ATOM
   1 C1           6.6292     3.2061     4.0888 C.3          1    LIG   0.0000
   2 C2           5.7818     2.5800     2.9930 C.ar         1    LIG   0.0000
   3 C3           6.3942     2.0045     1.8837 C.ar         1    LIG   0.0000
   4 C4           5.6452     1.4231     0.8643 C.ar         1    LIG   0.0000
   5 N5           6.2353     0.8690    -0.2075 N.ar         1    LIG   0.0000
   6 C6           5.5294     0.3038    -1.2017 C.ar         1    LIG   0.0000
   7 C7           6.1731    -0.2930    -2.3562 C.ar         1    LIG   0.0000
   8 C8           7.2074    -1.2048    -2.1726 C.ar         1    LIG   0.0000
   9 C9           7.8196    -1.7718    -3.2855 C.ar         1    LIG   0.0000
  10 C10          7.3961    -1.4257    -4.5651 C.ar         1    LIG   0.0000
  11 C11          6.3608    -0.5131    -4.7392 C.ar         1    LIG   0.0000
  12 C12          5.7435     0.0592    -3.6315 C.ar         1    LIG   0.0000
  13 C13          4.1401     0.2705    -1.1578 C.ar         1    LIG   0.0000
  14 C14          3.5047     0.8381    -0.0596 C.ar         1    LIG   0.0000
  15 C15          2.0542     0.7920    -0.0365 C.2          1    LIG   0.0000
  16 N16          1.3290    -0.3020    -0.0552 N.2          1    LIG   0.0000
  17 N17          0.0673     0.0617    -0.0245 N.2          1    LIG   0.0000
  18 C18          0.0360     1.3714     0.0118 C.2          1    LIG   0.0000
  19 C19         -1.1676     2.1839     0.0532 C.2          1    LIG   0.0000
  20 C20         -1.3754     3.3937    -0.6450 C.2          1    LIG   0.0000
  21 N21         -2.5887     3.7872    -0.3310 N.2          1    LIG   0.0000
  22 N22         -3.1504     2.9394     0.5027 N.pl3        1    LIG   0.0000
  23 C23         -4.4961     3.0416     1.0855 C.3          1    LIG   0.0000
  24 C24         -2.2934     1.9144     0.7686 C.2          1    LIG   0.0000
  25 O25          1.2628     1.8358     0.0059 O.2          1    LIG   0.0000
  26 C26          4.2551     1.4202     0.9615 C.ar         1    LIG   0.0000
  27 C27          3.6555     1.9988     2.0784 C.ar         1    LIG   0.0000
  28 C28          4.3951     2.5822     3.0994 C.ar         1    LIG   0.0000
  29 C29          3.6800     3.1977     4.2913 C.3          1    LIG   0.0000
  30 H            7.5970     3.1175     3.8533 H            1    LIG   0.0000
  31 H            6.3954     4.1742     4.1789 H            1    LIG   0.0000
  32 H            6.4526     2.7385     4.9549 H            1    LIG   0.0000
  33 H            7.3920     2.0086     1.8175 H            1    LIG   0.0000
  34 H            7.5075    -1.4500    -1.2508 H            1    LIG   0.0000
  35 H            8.5644    -2.4283    -3.1660 H            1    LIG   0.0000
  36 H            7.8382    -1.8350    -5.3632 H            1    LIG   0.0000
  37 H            6.0601    -0.2683    -5.6610 H            1    LIG   0.0000
  38 H            4.9992     0.7163    -3.7508 H            1    LIG   0.0000
  39 H            3.6126    -0.1502    -1.8959 H            1    LIG   0.0000
  40 H           -0.7308     3.8561    -1.2538 H            1    LIG   0.0000
  41 H           -4.6603     2.2579     1.6845 H            1    LIG   0.0000
  42 H           -4.5665     3.8867     1.6154 H            1    LIG   0.0000
  43 H           -5.1768     3.0497     0.3530 H            1    LIG   0.0000
  44 H           -2.4572     1.1285     1.3647 H            1    LIG   0.0000
  45 H            2.6579     1.9939     2.1474 H            1    LIG   0.0000
  46 H            2.6918     3.0960     4.1761 H            1    LIG   0.0000
  47 H            3.9674     2.7331     5.1289 H            1    LIG   0.0000
  48 H            3.9102     4.1689     4.3531 H            1    LIG   0.0000
@<TRIPOS>BOND
   1        1        2 1
   2        2        3 ar
   3        3        4 ar
   4        4        5 ar
   5        5        6 ar
   6        6        7 1
   7        7        8 ar
   8        8        9 ar
   9        9       10 ar
  10       10       11 ar
  11       11       12 ar
  12       12        7 ar
  13        6       13 ar
  14       13       14 ar
  15       14       15 1
  16       15       16 2
  17       16       17 1
  18       17       18 2
  19       18       19 1
  20       19       20 1
  21       20       21 2
  22       21       22 1
  23       22       23 1
  24       22       24 1
  25       24       19 2
  26       18       25 1
  27       25       15 1
  28       14       26 ar
  29       26        4 ar
  30       26       27 ar
  31       27       28 ar
  32       28        2 ar
  33       28       29 1
  34        1       30 1
  35        1       31 1
  36        1       32 1
  37        3       33 1
  38        8       34 1
  39        9       35 1
  40       10       36 1
  41       11       37 1
  42       12       38 1
  43       13       39 1
  44       20       40 1
  45       23       41 1
  46       23       42 1
  47       23       43 1
  48       24       44 1
  49       27       45 1
  50       29       46 1
  51       29       47 1
  52       29       48 1

@<TRIPOS>MOLECULE

  48   52
SMALL
USER_CHARGES
@<TRIPOS>ATOM
   1 C1           6.6292     3.2061     4.0888 C.3          1    LIG   0.0000
   2 C2           5.7818     2.5800     2.9930 C.ar         1    LIG   0.0000
   3 C3           6.3942     2.0045     1.8837 C.ar         1    LIG   0.0000
   4 C4           5.6452     1.4231     0.8643 C.ar         1    LIG   0.0000
   5 N5           6.2353     0.8690    -0.2075 N.ar         1    LIG   0.0000
   6 C6           5.5294     0.3038    -1.2017 C.ar         1    LIG   0.0000
   7 C7           6.1731    -0.2930    -2.3562 C.ar         1    LIG   0.0000
   8 C8           7.2074    -1.2048    -2.1726 C.ar         1    LIG   0.0000
   9 C9           7.8196    -1.7718    -3.2855 C.ar         1    LIG   0.0000
  10 C10          7.3961    -1.4257    -4.5651 C.ar         1    LIG   0.0000
  11 C11          6.3608    -0.5131    -4.7392 C.ar         1    LIG   0.0000
  12 C12          5.7435     0.0592    -3.6315 C.ar         1    LIG   0.0000
  13 C13          4.1401     0.2705    -1.1578 C.ar         1    LIG   0.0000
  14 C14          3.5047     0.8381    -0.0596 C.ar         1    LIG   0.0000
  15 C15          2.0542     0.7920    -0.0365 C.2          1    LIG   0.0000
  16 N16          1.3290    -0.3020    -0.0552 N.2          1    LIG   0.0000
  17 N17          0.0673     0.0617    -0.0245 N.2          1    LIG   0.0000
  18 C18          0.0360     1.3714     0.0118 C.2          1    LIG   0.0000
  19 C19         -1.1676     2.1839     0.0532 C.2          1    LIG   0.0000
  20 C20         -2.3333     1.9011     0.7986 C.2          1    LIG   0.0000
  21 N21         -3.1651     2.8882     0.5549 N.2          1    LIG   0.0000
  22 N22         -2.6281     3.7527    -0.2779 N.pl3        1    LIG   0.0000
  23 C23         -3.2521     4.9801    -0.7930 C.3          1    LIG   0.0000
  24 C24         -1.3714     3.3508    -0.6165 C.2          1    LIG   0.0000
  25 O25          1.2628     1.8358     0.0059 O.2          1    LIG   0.0000
  26 C26          4.2551     1.4202     0.9615 C.ar         1    LIG   0.0000
  27 C27          3.6555     1.9988     2.0784 C.ar         1    LIG   0.0000
  28 C28          4.3951     2.5822     3.0994 C.ar         1    LIG   0.0000
  29 C29          3.6800     3.1977     4.2913 C.3          1    LIG   0.0000
  30 H            7.5970     3.1175     3.8533 H            1    LIG   0.0000
  31 H            6.3954     4.1742     4.1789 H            1    LIG   0.0000
  32 H            6.4526     2.7385     4.9549 H            1    LIG   0.0000
  33 H            7.3920     2.0086     1.8175 H            1    LIG   0.0000
  34 H            7.5075    -1.4500    -1.2508 H            1    LIG   0.0000
  35 H            8.5644    -2.4283    -3.1660 H            1    LIG   0.0000
  36 H            7.8382    -1.8350    -5.3632 H            1    LIG   0.0000
  37 H            6.0601    -0.2683    -5.6610 H            1    LIG   0.0000
  38 H            4.9992     0.7163    -3.7508 H            1    LIG   0.0000
  39 H            3.6126    -0.1502    -1.8959 H            1    LIG   0.0000
  40 H           -2.4928     1.1113     1.3907 H            1    LIG   0.0000
  41 H           -2.6153     5.4448    -1.4082 H            1    LIG   0.0000
  42 H           -4.0865     4.7458    -1.2917 H            1    LIG   0.0000
  43 H           -3.4788     5.5845    -0.0293 H            1    LIG   0.0000
  44 H           -0.7322     3.8159    -1.2289 H            1    LIG   0.0000
  45 H            2.6579     1.9939     2.1474 H            1    LIG   0.0000
  46 H            2.6918     3.0960     4.1761 H            1    LIG   0.0000
  47 H            3.9674     2.7331     5.1289 H            1    LIG   0.0000
  48 H            3.9102     4.1689     4.3531 H            1    LIG   0.0000
@<TRIPOS>BOND
   1        1        2 1
   2        2        3 ar
   3        3        4 ar
   4        4        5 ar
   5        5        6 ar
   6        6        7 1
   7        7        8 ar
   8        8        9 ar
   9        9       10 ar
  10       10       11 ar
  11       11       12 ar
  12       12        7 ar
  13        6       13 ar
  14       13       14 ar
  15       14       15 1
  16       15       16 2
  17       16       17 1
  18       17       18 2
  19       18       19 1
  20       19       20 1
  21       20       21 2
  22       21       22 1
  23       22       23 1
  24       22       24 1
  25       24       19 2
  26       18       25 1
  27       25       15 1
  28       14       26 ar
  29       26        4 ar
  30       26       27 ar
  31       27       28 ar
  32       28        2 ar
  33       28       29 1
  34        1       30 1
  35        1       31 1
  36        1       32 1
  37        3       33 1
  38        8       34 1
  39        9       35 1
  40       10       36 1
  41       11       37 1
  42       12       38 1
  43       13       39 1
  44       20       40 1
  45       23       41 1
  46       23       42 1
  47       23       43 1
  48       24       44 1
  49       27       45 1
  50       29       46 1
  51       29       47 1
  52       29       48 1

@<TRIPOS>MOLECULE

  48   52
SMALL
USER_CHARGES
@<TRIPOS>ATOM
   1 C1           6.4906     3.4365    -4.1719 C.3          1    LIG   0.0000
   2 C2           5.6798     2.7491    -3.0853 C.ar         1    LIG   0.0000
   3 C3           6.3286     2.1143    -2.0301 C.ar         1    LIG   0.0000
   4 C4           5.6136     1.4767    -1.0201 C.ar         1    LIG   0.0000
   5 N5           6.2387     0.8623    -0.0024 N.ar         1    LIG   0.0000
   6 C6           5.5660     0.2410     0.9814 C.ar         1    LIG   0.0000
   7 C7           6.2476    -0.4203     2.0775 C.ar         1    LIG   0.0000
   8 C8           7.6378    -0.4191     2.1244 C.ar         1    LIG   0.0000
   9 C9           8.2831    -1.0563     3.1789 C.ar         1    LIG   0.0000
  10 C10          7.5392    -1.6857     4.1724 C.ar         1    LIG   0.0000
  11 C11          6.1492    -1.6817     4.1176 C.ar         1    LIG   0.0000
  12 C12          5.4958    -1.0471     3.0659 C.ar         1    LIG   0.0000
  13 C13          4.1760     0.2103     0.9832 C.ar         1    LIG   0.0000
  14 C14          3.5047     0.8381    -0.0596 C.ar         1    LIG   0.0000
  15 C15          2.0542     0.7920    -0.0365 C.2          1    LIG   0.0000
  16 N16          1.3290    -0.3020    -0.0552 N.2          1    LIG   0.0000
  17 N17          0.0673     0.0617    -0.0245 N.2          1    LIG   0.0000
  18 C18          0.0360     1.3714     0.0118 C.2          1    LIG   0.0000
  19 C19         -1.1676     2.1839     0.0532 C.2          1    LIG   0.0000
  20 C20         -1.3527     3.3525     0.8241 C.2          1    LIG   0.0000
  21 N21         -2.5703     3.7691     0.5605 N.2          1    LIG   0.0000
  22 N22         -3.1610     2.9643    -0.2955 N.pl3        1    LIG   0.0000
  23 C23         -4.5266     3.0937    -0.8241 C.3          1    LIG   0.0000
  24 C24         -2.3140     1.9558    -0.6436 C.2          1    LIG   0.0000
  25 O25          1.2628     1.8358     0.0059 O.2          1    LIG   0.0000
  26 C26          4.2210     1.4769    -1.0712 C.ar         1    LIG   0.0000
  27 C27          3.5848     2.1175    -2.1327 C.ar         1    LIG   0.0000
  28 C28          4.2904     2.7549    -3.1454 C.ar         1    LIG   0.0000
  29 C29          3.5363     3.4349    -4.2767 C.3          1    LIG   0.0000
  30 H            7.4657     3.3365    -3.9739 H            1    LIG   0.0000
  31 H            6.2854     3.0175    -5.0564 H            1    LIG   0.0000
  32 H            6.2542     4.4077    -4.2002 H            1    LIG   0.0000
  33 H            7.3280     2.1163    -1.9969 H            1    LIG   0.0000
  34 H            8.1674     0.0349     1.4079 H            1    LIG   0.0000
  35 H            9.2821    -1.0623     3.2232 H            1    LIG   0.0000
  36 H            8.0060    -2.1430     4.9293 H            1    LIG   0.0000
  37 H            5.6194    -2.1350     4.8344 H            1    LIG   0.0000
  38 H            4.4968    -1.0417     3.0210 H            1    LIG   0.0000
  39 H            3.6731    -0.2506     1.7144 H            1    LIG   0.0000
  40 H           -0.6920     3.7762     1.4439 H            1    LIG   0.0000
  41 H           -4.7118     2.3417    -1.4566 H            1    LIG   0.0000
  42 H           -5.1808     3.0625    -0.0684 H            1    LIG   0.0000
  43 H           -4.6160     3.9649    -1.3067 H            1    LIG   0.0000
  44 H           -2.4965     1.2050    -1.2783 H            1    LIG   0.0000
  45 H            2.5854     2.1183    -2.1666 H            1    LIG   0.0000
  46 H            2.5525     3.3254    -4.1348 H            1    LIG   0.0000
  47 H            3.7646     4.4084    -4.2916 H            1    LIG   0.0000
  48 H            3.7958     3.0183    -5.1480 H            1    LIG   0.0000
@<TRIPOS>BOND
   1        1        2 1
   2        2        3 ar
   3        3        4 ar
   4        4        5 ar
   5        5        6 ar
   6        6        7 1
   7        7        8 ar
   8        8        9 ar
   9        9       10 ar
  10       10       11 ar
  11       11       12 ar
  12       12        7 ar
  13        6       13 ar
  14       13       14 ar
  15       14       15 1
  16       15       16 2
  17       16       17 1
  18       17       18 2
  19       18       19 1
  20       19       20 1
  21       20       21 2
  22       21       22 1
  23       22       23 1
  24       22       24 1
  25       24       19 2
  26       18       25 1
  27       25       15 1
  28       14       26 ar
  29       26        4 ar
  30       26       27 ar
  31       27       28 ar
  32       28        2 ar
  33       28       29 1
  34        1       30 1
  35        1       31 1
  36        1       32 1
  37        3       33 1
  38        8       34 1
  39        9       35 1
  40       10       36 1
  41       11       37 1
  42       12       38 1
  43       13       39 1
  44       20       40 1
  45       23       41 1
  46       23       42 1
  47       23       43 1
  48       24       44 1
  49       27       45 1
  50       29       46 1
  51       29       47 1
  52       29       48 1

@<TRIPOS>MOLECULE

  48   52
SMALL
USER_CHARGES
@<TRIPOS>ATOM
   1 C1           6.7839    -3.8300    -0.2448 C.3          1    LIG   0.0000
   2 C2           5.8956    -2.5975    -0.1952 C.ar         1    LIG   0.0000
   3 C3           6.4675    -1.3288    -0.1701 C.ar         1    LIG   0.0000
   4 C4           5.6805    -0.1814    -0.1251 C.ar         1    LIG   0.0000
   5 N5           6.2315     1.0432    -0.0990 N.ar         1    LIG   0.0000
   6 C6           5.4885     2.1623    -0.0548 C.ar         1    LIG   0.0000
   7 C7           6.0901     3.4816    -0.0271 C.ar         1    LIG   0.0000
   8 C8           7.4754     3.6069    -0.0465 C.ar         1    LIG   0.0000
   9 C9           8.0438     4.8760    -0.0189 C.ar         1    LIG   0.0000
  10 C10          7.2290     6.0031     0.0271 C.ar         1    LIG   0.0000
  11 C11          5.8446     5.8685     0.0459 C.ar         1    LIG   0.0000
  12 C12          5.2678     4.6027     0.0193 C.ar         1    LIG   0.0000
  13 C13          4.1000     2.0939    -0.0343 C.ar         1    LIG   0.0000
  14 C14          3.5047     0.8381    -0.0596 C.ar         1    LIG   0.0000
  15 C15          2.0542     0.7920    -0.0365 C.2          1    LIG   0.0000
  16 N16          1.3290    -0.3020    -0.0552 N.2          1    LIG   0.0000
  17 N17          0.0673     0.0617    -0.0245 N.2          1    LIG   0.0000
  18 C18          0.0360     1.3714     0.0118 C.2          1    LIG   0.0000
  19 C19         -1.1676     2.1839     0.0532 C.2          1    LIG   0.0000
  20 C20         -1.2143     3.5947     0.0935 C.2          1    LIG   0.0000
  21 N21         -2.4886     3.9126     0.1156 N.2          1    LIG   0.0000
  22 N22         -3.2370     2.8314     0.1009 N.pl3        1    LIG   0.0000
  23 C23         -4.7059     2.7796     0.1260 C.3          1    LIG   0.0000
  24 C24         -2.4476     1.7221     0.0584 C.2          1    LIG   0.0000
  25 O25          1.2628     1.8358     0.0059 O.2          1    LIG   0.0000
  26 C26          4.2931    -0.3111    -0.1049 C.ar         1    LIG   0.0000
  27 C27          3.7343    -1.5874    -0.1318 C.ar         1    LIG   0.0000
  28 C28          4.5121    -2.7376    -0.1754 C.ar         1    LIG   0.0000
  29 C29          3.8405    -4.1011    -0.2020 C.3          1    LIG   0.0000
  30 H            7.7436    -3.5491    -0.2535 H            1    LIG   0.0000
  31 H            6.6103    -4.3986     0.5593 H            1    LIG   0.0000
  32 H            6.5822    -4.3532    -1.0728 H            1    LIG   0.0000
  33 H            7.4635    -1.2398    -0.1847 H            1    LIG   0.0000
  34 H            8.0561     2.7935    -0.0798 H            1    LIG   0.0000
  35 H            9.0385     4.9786    -0.0322 H            1    LIG   0.0000
  36 H            7.6406     6.9143     0.0468 H            1    LIG   0.0000
  37 H            5.2637     6.6818     0.0786 H            1    LIG   0.0000
  38 H            4.2732     4.4999     0.0333 H            1    LIG   0.0000
  39 H            3.5449     2.9251    -0.0023 H            1    LIG   0.0000
  40 H           -0.4364     4.2231     0.1031 H            1    LIG   0.0000
  41 H           -5.0062     1.8259     0.1065 H            1    LIG   0.0000
  42 H           -5.0408     3.2175     0.9603 H            1    LIG   0.0000
  43 H           -5.0701     3.2600    -0.6719 H            1    LIG   0.0000
  44 H           -2.7462     0.7680     0.0356 H            1    LIG   0.0000
  45 H            2.7385    -1.6785    -0.1193 H            1    LIG   0.0000
  46 H            2.8476    -3.9841    -0.1816 H            1    LIG   0.0000
  47 H            4.1021    -4.5853    -1.0370 H            1    LIG   0.0000
  48 H            4.1301    -4.6310     0.5952 H            1    LIG   0.0000
@<TRIPOS>BOND
   1        1        2 1
   2        2        3 ar
   3        3        4 ar
   4        4        5 ar
   5        5        6 ar
   6        6        7 1
   7        7        8 ar
   8        8        9 ar
   9        9       10 ar
  10       10       11 ar
  11       11       12 ar
  12       12        7 ar
  13        6       13 ar
  14       13       14 ar
  15       14       15 1
  16       15       16 2
  17       16       17 1
  18       17       18 2
  19       18       19 1
  20       19       20 1
  21       20       21 2
  22       21       22 1
  23       22       23 1
  24       22       24 1
  25       24       19 2
  26       18       25 1
  27       25       15 1
  28       14       26 ar
  29       26        4 ar
  30       26       27 ar
  31       27       28 ar
  32       28        2 ar
  33       28       29 1
  34        1       30 1
  35        1       31 1
  36        1       32 1
  37        3       33 1
  38        8       34 1
  39        9       35 1
  40       10       36 1
  41       11       37 1
  42       12       38 1
  43       13       39 1
  44       20       40 1
  45       23       41 1
  46       23       42 1
  47       23       43 1
  48       24       44 1
  49       27       45 1
  50       29       46 1
  51       29       47 1
  52       29       48 1

@<TRIPOS>MOLECULE

  48   52
SMALL
USER_CHARGES
@<TRIPOS>ATOM
   1 C1           6.7839    -3.8300    -0.2448 C.3          1    LIG   0.0000
   2 C2           5.8956    -2.5975    -0.1952 C.ar         1    LIG   0.0000
   3 C3           6.4675    -1.3288    -0.1701 C.ar         1    LIG   0.0000
   4 C4           5.6805    -0.1814    -0.1251 C.ar         1    LIG   0.0000
   5 N5           6.2315     1.0432    -0.0990 N.ar         1    LIG   0.0000
   6 C6           5.4885     2.1623    -0.0548 C.ar         1    LIG   0.0000
   7 C7           6.0901     3.4816    -0.0271 C.ar         1    LIG   0.0000
   8 C8           7.4754     3.6069    -0.0465 C.ar         1    LIG   0.0000
   9 C9           8.0438     4.8760    -0.0189 C.ar         1    LIG   0.0000
  10 C10          7.2290     6.0031     0.0271 C.ar         1    LIG   0.0000
  11 C11          5.8446     5.8685     0.0459 C.ar         1    LIG   0.0000
  12 C12          5.2678     4.6027     0.0193 C.ar         1    LIG   0.0000
  13 C13          4.1000     2.0939    -0.0343 C.ar         1    LIG   0.0000
  14 C14          3.5047     0.8381    -0.0596 C.ar         1    LIG   0.0000
  15 C15          2.0542     0.7920    -0.0365 C.2          1    LIG   0.0000
  16 N16          1.3290    -0.3020    -0.0552 N.2          1    LIG   0.0000
  17 N17          0.0673     0.0617    -0.0245 N.2          1    LIG   0.0000
  18 C18          0.0360     1.3714     0.0118 C.2          1    LIG   0.0000
  19 C19         -1.1676     2.1839     0.0532 C.2          1    LIG   0.0000
  20 C20         -2.4944     1.7001     0.0601 C.2          1    LIG   0.0000
  21 N21         -3.2651     2.7628     0.1083 N.2          1    LIG   0.0000
  22 N22         -2.5415     3.8607     0.1238 N.pl3        1    LIG   0.0000
  23 C23         -3.0422     5.2421     0.1665 C.3          1    LIG   0.0000
  24 C24         -1.2171     3.5431     0.0937 C.2          1    LIG   0.0000
  25 O25          1.2628     1.8358     0.0059 O.2          1    LIG   0.0000
  26 C26          4.2931    -0.3111    -0.1049 C.ar         1    LIG   0.0000
  27 C27          3.7343    -1.5874    -0.1318 C.ar         1    LIG   0.0000
  28 C28          4.5121    -2.7376    -0.1754 C.ar         1    LIG   0.0000
  29 C29          3.8405    -4.1011    -0.2020 C.3          1    LIG   0.0000
  30 H            7.7436    -3.5491    -0.2535 H            1    LIG   0.0000
  31 H            6.6103    -4.3986     0.5593 H            1    LIG   0.0000
  32 H            6.5822    -4.3532    -1.0728 H            1    LIG   0.0000
  33 H            7.4635    -1.2398    -0.1847 H            1    LIG   0.0000
  34 H            8.0561     2.7935    -0.0798 H            1    LIG   0.0000
  35 H            9.0385     4.9786    -0.0322 H            1    LIG   0.0000
  36 H            7.6406     6.9143     0.0468 H            1    LIG   0.0000
  37 H            5.2637     6.6818     0.0786 H            1    LIG   0.0000
  38 H            4.2732     4.4999     0.0333 H            1    LIG   0.0000
  39 H            3.5449     2.9251    -0.0023 H            1    LIG   0.0000
  40 H           -2.7872     0.7443     0.0338 H            1    LIG   0.0000
  41 H           -2.2694     5.8768     0.1697 H            1    LIG   0.0000
  42 H           -3.6123     5.4150    -0.6367 H            1    LIG   0.0000
  43 H           -3.5855     5.3743     0.9956 H            1    LIG   0.0000
  44 H           -0.4432     4.1764     0.1001 H            1    LIG   0.0000
  45 H            2.7385    -1.6785    -0.1193 H            1    LIG   0.0000
  46 H            2.8476    -3.9841    -0.1816 H            1    LIG   0.0000
  47 H            4.1021    -4.5853    -1.0370 H            1    LIG   0.0000
  48 H            4.1301    -4.6310     0.5952 H            1    LIG   0.0000
@<TRIPOS>BOND
   1        1        2 1
   2        2        3 ar
   3        3        4 ar
   4        4        5 ar
   5        5        6 ar
   6        6        7 1
   7        7        8 ar
   8        8        9 ar
   9        9       10 ar
  10       10       11 ar
  11       11       12 ar
  12       12        7 ar
  13        6       13 ar
  14       13       14 ar
  15       14       15 1
  16       15       16 2
  17       16       17 1
  18       17       18 2
  19       18       19 1
  20       19       20 1
  21       20       21 2
  22       21       22 1
  23       22       23 1
  24       22       24 1
  25       24       19 2
  26       18       25 1
  27       25       15 1
  28       14       26 ar
  29       26        4 ar
  30       26       27 ar
  31       27       28 ar
  32       28        2 ar
  33       28       29 1
  34        1       30 1
  35        1       31 1
  36        1       32 1
  37        3       33 1
  38        8       34 1
  39        9       35 1
  40       10       36 1
  41       11       37 1
  42       12       38 1
  43       13       39 1
  44       20       40 1
  45       23       41 1
  46       23       42 1
  47       23       43 1
  48       24       44 1
  49       27       45 1
  50       29       46 1
  51       29       47 1
  52       29       48 1

@<TRIPOS>MOLECULE

  48   52
SMALL
USER_CHARGES
@<TRIPOS>ATOM
   1 C1           6.8004    -2.8001     2.8525 C.3          1    LIG   0.0000
   2 C2           5.9077    -1.8395     2.0838 C.ar         1    LIG   0.0000
   3 C3           6.4754    -0.8411     1.2975 C.ar         1    LIG   0.0000
   4 C4           5.6842     0.0532     0.5816 C.ar         1    LIG   0.0000
   5 N5           6.2310     1.0180    -0.1760 N.ar         1    LIG   0.0000
   6 C6           5.4841     1.8909    -0.8736 C.ar         1    LIG   0.0000
   7 C7           6.0812     2.9302    -1.6900 C.ar         1    LIG   0.0000
   8 C8           7.0657     3.7503    -1.1485 C.ar         1    LIG   0.0000
   9 C9           7.6325     4.7450    -1.9385 C.ar         1    LIG   0.0000
  10 C10          7.2140     4.9114    -3.2552 C.ar         1    LIG   0.0000
  11 C11          6.2290     4.0865    -3.7885 C.ar         1    LIG   0.0000
  12 C12          5.6565     3.0896    -3.0050 C.ar         1    LIG   0.0000
  13 C13          4.0957     1.8271    -0.8371 C.ar         1    LIG   0.0000
  14 C14          3.5047     0.8381    -0.0596 C.ar         1    LIG   0.0000
  15 C15          2.0542     0.7920    -0.0365 C.2          1    LIG   0.0000
  16 N16          1.3290    -0.3020    -0.0552 N.2          1    LIG   0.0000
  17 N17          0.0673     0.0617    -0.0245 N.2          1    LIG   0.0000
  18 C18          0.0360     1.3714     0.0118 C.2          1    LIG   0.0000
  19 C19         -1.1676     2.1839     0.0532 C.2          1    LIG   0.0000
  20 C20         -2.3560     1.9423    -0.6705 C.2          1    LIG   0.0000
  21 N21         -3.1835     2.9063    -0.3366 N.2          1    LIG   0.0000
  22 N22         -2.6175     3.7278     0.5202 N.pl3        1    LIG   0.0000
  23 C23         -3.2216     4.9280     1.1166 C.3          1    LIG   0.0000
  24 C24         -1.3508     3.3094     0.7957 C.2          1    LIG   0.0000
  25 O25          1.2628     1.8358     0.0059 O.2          1    LIG   0.0000
  26 C26          4.2972    -0.0577     0.6573 C.ar         1    LIG   0.0000
  27 C27          3.7427    -1.0628     1.4473 C.ar         1    LIG   0.0000
  28 C28          4.5246    -1.9585     2.1659 C.ar         1    LIG   0.0000
  29 C29          3.8576    -3.0323     3.0104 C.3          1    LIG   0.0000
  30 H            7.7592    -2.5735     2.6814 H            1    LIG   0.0000
  31 H            6.6090    -2.7224     3.8310 H            1    LIG   0.0000
  32 H            6.6202    -3.7364     2.5510 H            1    LIG   0.0000
  33 H            7.4711    -0.7647     1.2457 H            1    LIG   0.0000
  34 H            7.3628     3.6260    -0.2018 H            1    LIG   0.0000
  35 H            8.3409     5.3408    -1.5601 H            1    LIG   0.0000
  36 H            7.6233     5.6274    -3.8207 H            1    LIG   0.0000
  37 H            5.9323     4.2102    -4.7355 H            1    LIG   0.0000
  38 H            4.9475     2.4942    -3.3830 H            1    LIG   0.0000
  39 H            3.5377     2.4749    -1.3559 H            1    LIG   0.0000
  40 H           -2.5316     1.1912    -1.3069 H            1    LIG   0.0000
  41 H           -2.5638     5.3611     1.7329 H            1    LIG   0.0000
  42 H           -3.4722     5.5701     0.3921 H            1    LIG   0.0000
  43 H           -4.0395     4.6693     1.6304 H            1    LIG   0.0000
  44 H           -0.6930     3.7394     1.4141 H            1    LIG   0.0000
  45 H            2.7472    -1.1422     1.4988 H            1    LIG   0.0000
  46 H            2.8641    -2.9470     2.9342 H            1    LIG   0.0000
  47 H            4.1405    -3.9349     2.6861 H            1    LIG   0.0000
  48 H            4.1293    -2.9212     3.9663 H            1    LIG   0.0000
@<TRIPOS>BOND
   1        1        2 1
   2        2        3 ar
   3        3        4 ar
   4        4        5 ar
   5        5        6 ar
   6        6        7 1
   7        7        8 ar
   8        8        9 ar
   9        9       10 ar
  10       10       11 ar
  11       11       12 ar
  12       12        7 ar
  13        6       13 ar
  14       13       14 ar
  15       14       15 1
  16       15       16 2
  17       16       17 1
  18       17       18 2
  19       18       19 1
  20       19       20 1
  21       20       21 2
  22       21       22 1
  23       22       23 1
  24       22       24 1
  25       24       19 2
  26       18       25 1
  27       25       15 1
  28       14       26 ar
  29       26        4 ar
  30       26       27 ar
  31       27       28 ar
  32       28        2 ar
  33       28       29 1
  34        1       30 1
  35        1       31 1
  36        1       32 1
  37        3       33 1
  38        8       34 1
  39        9       35 1
  40       10       36 1
  41       11       37 1
  42       12       38 1
  43       13       39 1
  44       20       40 1
  45       23       41 1
  46       23       42 1
  47       23       43 1
  48       24       44 1
  49       27       45 1
  50       29       46 1
  51       29       47 1
  52       29       48 1

@<TRIPOS>MOLECULE

  48   52
SMALL
USER_CHARGES
@<TRIPOS>ATOM
   1 C1           6.6400    -1.3310    -4.3074 C.3          1    LIG   0.0000
   2 C2           5.7897    -0.7589    -3.1847 C.ar         1    LIG   0.0000
   3 C3           6.3993    -0.1445    -2.0947 C.ar         1    LIG   0.0000
   4 C4           5.6476     0.3891    -1.0515 C.ar         1    LIG   0.0000
   5 N5           6.2350     0.9807     0.0015 N.ar         1    LIG   0.0000
   6 C6           5.5266     1.5009     1.0183 C.ar         1    LIG   0.0000
   7 C7           6.1674     2.1386     2.1523 C.ar         1    LIG   0.0000
   8 C8           7.5551     2.2209     2.2019 C.ar         1    LIG   0.0000
   9 C9           8.1614     2.8335     3.2937 C.ar         1    LIG   0.0000
  10 C10          7.3813     3.3561     4.3208 C.ar         1    LIG   0.0000
  11 C11          5.9942     3.2695     4.2627 C.ar         1    LIG   0.0000
  12 C12          5.3798     2.6577     3.1746 C.ar         1    LIG   0.0000
  13 C13          4.1373     1.4460     1.0185 C.ar         1    LIG   0.0000
  14 C14          3.5047     0.8381    -0.0596 C.ar         1    LIG   0.0000
  15 C15          2.0542     0.7920    -0.0365 C.2          1    LIG   0.0000
  16 N16          1.3290    -0.3020    -0.0552 N.2          1    LIG   0.0000
  17 N17          0.0673     0.0617    -0.0245 N.2          1    LIG   0.0000
  18 C18          0.0360     1.3714     0.0118 C.2          1    LIG   0.0000
  19 C19         -1.1676     2.1839     0.0532 C.2          1    LIG   0.0000
  20 C20         -2.4944     1.7001     0.0601 C.2          1    LIG   0.0000
  21 N21         -3.2651     2.7628     0.1083 N.2          1    LIG   0.0000
  22 N22         -2.5415     3.8607     0.1238 N.pl3        1    LIG   0.0000
  23 C23         -3.0422     5.2421     0.1665 C.3          1    LIG   0.0000
  24 C24         -1.2171     3.5431     0.0937 C.2          1    LIG   0.0000
  25 O25          1.2628     1.8358     0.0059 O.2          1    LIG   0.0000
  26 C26          4.2577     0.3038    -1.1045 C.ar         1    LIG   0.0000
  27 C27          3.6609    -0.3129    -2.2024 C.ar         1    LIG   0.0000
  28 C28          4.4033    -0.8492    -3.2469 C.ar         1    LIG   0.0000
  29 C29          3.6912    -1.5100    -4.4162 C.3          1    LIG   0.0000
  30 H            7.6072    -1.1809    -4.1027 H            1    LIG   0.0000
  31 H            6.4653    -2.3121    -4.3910 H            1    LIG   0.0000
  32 H            6.4067    -0.8764    -5.1670 H            1    LIG   0.0000
  33 H            7.3970    -0.0852    -2.0602 H            1    LIG   0.0000
  34 H            8.1107     1.8439     1.4609 H            1    LIG   0.0000
  35 H            9.1582     2.8984     3.3405 H            1    LIG   0.0000
  36 H            7.8201     3.7959     5.1044 H            1    LIG   0.0000
  37 H            5.4384     3.6470     5.0033 H            1    LIG   0.0000
  38 H            4.3830     2.5920     3.1279 H            1    LIG   0.0000
  39 H            3.6078     1.8331     1.7734 H            1    LIG   0.0000
  40 H           -2.7872     0.7443     0.0338 H            1    LIG   0.0000
  41 H           -2.2694     5.8768     0.1697 H            1    LIG   0.0000
  42 H           -3.6123     5.4150    -0.6367 H            1    LIG   0.0000
  43 H           -3.5855     5.3743     0.9956 H            1    LIG   0.0000
  44 H           -0.4432     4.1764     0.1001 H            1    LIG   0.0000
  45 H            2.6633    -0.3714    -2.2397 H            1    LIG   0.0000
  46 H            2.7028    -1.4712    -4.2696 H            1    LIG   0.0000
  47 H            3.9219    -1.0289    -5.2620 H            1    LIG   0.0000
  48 H            3.9806    -2.4647    -4.4863 H            1    LIG   0.0000
@<TRIPOS>BOND
   1        1        2 1
   2        2        3 ar
   3        3        4 ar
   4        4        5 ar
   5        5        6 ar
   6        6        7 1
   7        7        8 ar
   8        8        9 ar
   9        9       10 ar
  10       10       11 ar
  11       11       12 ar
  12       12        7 ar
  13        6       13 ar
  14       13       14 ar
  15       14       15 1
  16       15       16 2
  17       16       17 1
  18       17       18 2
  19       18       19 1
  20       19       20 1
  21       20       21 2
  22       21       22 1
  23       22       23 1
  24       22       24 1
  25       24       19 2
  26       18       25 1
  27       25       15 1
  28       14       26 ar
  29       26        4 ar
  30       26       27 ar
  31       27       28 ar
  32       28        2 ar
  33       28       29 1
  34        1       30 1
  35        1       31 1
  36        1       32 1
  37        3       33 1
  38        8       34 1
  39        9       35 1
  40       10       36 1
  41       11       37 1
  42       12       38 1
  43       13       39 1
  44       20       40 1
  45       23       41 1
  46       23       42 1
  47       23       43 1
  48       24       44 1
  49       27       45 1
  50       29       46 1
  51       29       47 1
  52       29       48 1

@<TRIPOS>MOLECULE

  48   52
SMALL
USER_CHARGES
@<TRIPOS>ATOM
   1 C1           6.6400    -1.3310    -4.3074 C.3          1    LIG   0.0000
   2 C2           5.7897    -0.7589    -3.1847 C.ar         1    LIG   0.0000
   3 C3           6.3993    -0.1445    -2.0947 C.ar         1    LIG   0.0000
   4 C4           5.6476     0.3891    -1.0515 C.ar         1    LIG   0.0000
   5 N5           6.2350     0.9807     0.0015 N.ar         1    LIG   0.0000
   6 C6           5.5266     1.5009     1.0183 C.ar         1    LIG   0.0000
   7 C7           6.1674     2.1386     2.1523 C.ar         1    LIG   0.0000
   8 C8           7.1354     3.1140     1.9370 C.ar         1    LIG   0.0000
   9 C9           7.7454     3.7198     3.0304 C.ar         1    LIG   0.0000
  10 C10          7.3856     3.3488     4.3224 C.ar         1    LIG   0.0000
  11 C11          6.4163     2.3725     4.5284 C.ar         1    LIG   0.0000
  12 C12          5.8017     1.7611     3.4403 C.ar         1    LIG   0.0000
  13 C13          4.1373     1.4460     1.0185 C.ar         1    LIG   0.0000
  14 C14          3.5047     0.8381    -0.0596 C.ar         1    LIG   0.0000
  15 C15          2.0542     0.7920    -0.0365 C.2          1    LIG   0.0000
  16 N16          1.3290    -0.3020    -0.0552 N.2          1    LIG   0.0000
  17 N17          0.0673     0.0617    -0.0245 N.2          1    LIG   0.0000
  18 C18          0.0360     1.3714     0.0118 C.2          1    LIG   0.0000
  19 C19         -1.1676     2.1839     0.0532 C.2          1    LIG   0.0000
  20 C20         -1.2143     3.5947     0.0935 C.2          1    LIG   0.0000
  21 N21         -2.4886     3.9126     0.1156 N.2          1    LIG   0.0000
  22 N22         -3.2370     2.8314     0.1009 N.pl3        1    LIG   0.0000
  23 C23         -4.7059     2.7796     0.1260 C.3          1    LIG   0.0000
  24 C24         -2.4476     1.7221     0.0584 C.2          1    LIG   0.0000
  25 O25          1.2628     1.8358     0.0059 O.2          1    LIG   0.0000
  26 C26          4.2577     0.3038    -1.1045 C.ar         1    LIG   0.0000
  27 C27          3.6609    -0.3129    -2.2024 C.ar         1    LIG   0.0000
  28 C28          4.4033    -0.8492    -3.2469 C.ar         1    LIG   0.0000
  29 C29          3.6912    -1.5100    -4.4162 C.3          1    LIG   0.0000
  30 H            7.6072    -1.1809    -4.1027 H            1    LIG   0.0000
  31 H            6.4653    -2.3121    -4.3910 H            1    LIG   0.0000
  32 H            6.4067    -0.8764    -5.1670 H            1    LIG   0.0000
  33 H            7.3970    -0.0852    -2.0602 H            1    LIG   0.0000
  34 H            7.3900     3.3769     1.0063 H            1    LIG   0.0000
  35 H            8.4428     4.4222     2.8880 H            1    LIG   0.0000
  36 H            7.8259     3.7862     5.1066 H            1    LIG   0.0000
  37 H            6.1612     2.1100     5.4590 H            1    LIG   0.0000
  38 H            5.1048     1.0582     3.5824 H            1    LIG   0.0000
  39 H            3.6078     1.8331     1.7734 H            1    LIG   0.0000
  40 H           -0.4364     4.2231     0.1031 H            1    LIG   0.0000
  41 H           -5.0062     1.8259     0.1065 H            1    LIG   0.0000
  42 H           -5.0408     3.2175     0.9603 H            1    LIG   0.0000
  43 H           -5.0701     3.2600    -0.6719 H            1    LIG   0.0000
  44 H           -2.7462     0.7680     0.0356 H            1    LIG   0.0000
  45 H            2.6633    -0.3714    -2.2397 H            1    LIG   0.0000
  46 H            2.7028    -1.4712    -4.2696 H            1    LIG   0.0000
  47 H            3.9219    -1.0289    -5.2620 H            1    LIG   0.0000
  48 H            3.9806    -2.4647    -4.4863 H            1    LIG   0.0000
@<TRIPOS>BOND
   1        1        2 1
   2        2        3 ar
   3        3        4 ar
   4        4        5 ar
   5        5        6 ar
   6        6        7 1
   7        7        8 ar
   8        8        9 ar
   9        9       10 ar
  10       10       11 ar
  11       11       12 ar
  12       12        7 ar
  13        6       13 ar
  14       13       14 ar
  15       14       15 1
  16       15       16 2
  17       16       17 1
  18       17       18 2
  19       18       19 1
  20       19       20 1
  21       20       21 2
  22       21       22 1
  23       22       23 1
  24       22       24 1
  25       24       19 2
  26       18       25 1
  27       25       15 1
  28       14       26 ar
  29       26        4 ar
  30       26       27 ar
  31       27       28 ar
  32       28        2 ar
  33       28       29 1
  34        1       30 1
  35        1       31 1
  36        1       32 1
  37        3       33 1
  38        8       34 1
  39        9       35 1
  40       10       36 1
  41       11       37 1
  42       12       38 1
  43       13       39 1
  44       20       40 1
  45       23       41 1
  46       23       42 1
  47       23       43 1
  48       24       44 1
  49       27       45 1
  50       29       46 1
  51       29       47 1
  52       29       48 1

@<TRIPOS>MOLECULE

  48   52
SMALL
USER_CHARGES
@<TRIPOS>ATOM
   1 C1           6.7785    -1.5614     3.9533 C.3          1    LIG   0.0000
   2 C2           5.8916    -0.9280     2.8936 C.ar         1    LIG   0.0000
   3 C3           6.4650    -0.2543     1.8191 C.ar         1    LIG   0.0000
   4 C4           5.6793     0.3356     0.8328 C.ar         1    LIG   0.0000
   5 N5           6.2316     0.9874    -0.2035 N.ar         1    LIG   0.0000
   6 C6           5.4899     1.5638    -1.1648 C.ar         1    LIG   0.0000
   7 C7           6.0930     2.2658    -2.2813 C.ar         1    LIG   0.0000
   8 C8           7.0681     3.2288    -2.0431 C.ar         1    LIG   0.0000
   9 C9           7.6406     3.8978    -3.1198 C.ar         1    LIG   0.0000
  10 C10          7.2371     3.6011    -4.4182 C.ar         1    LIG   0.0000
  11 C11          6.2615     2.6364    -4.6471 C.ar         1    LIG   0.0000
  12 C12          5.6832     1.9630    -3.5757 C.ar         1    LIG   0.0000
  13 C13          4.1014     1.5061    -1.1225 C.ar         1    LIG   0.0000
  14 C14          3.5047     0.8381    -0.0596 C.ar         1    LIG   0.0000
  15 C15          2.0542     0.7920    -0.0365 C.2          1    LIG   0.0000
  16 N16          1.3290    -0.3020    -0.0552 N.2          1    LIG   0.0000
  17 N17          0.0673     0.0617    -0.0245 N.2          1    LIG   0.0000
  18 C18          0.0360     1.3714     0.0118 C.2          1    LIG   0.0000
  19 C19         -1.1676     2.1839     0.0532 C.2          1    LIG   0.0000
  20 C20         -1.2143     3.5947     0.0935 C.2          1    LIG   0.0000
  21 N21         -2.4886     3.9126     0.1156 N.2          1    LIG   0.0000
  22 N22         -3.2370     2.8314     0.1009 N.pl3        1    LIG   0.0000
  23 C23         -4.7059     2.7796     0.1260 C.3          1    LIG   0.0000
  24 C24         -2.4476     1.7221     0.0584 C.2          1    LIG   0.0000
  25 O25          1.2628     1.8358     0.0059 O.2          1    LIG   0.0000
  26 C26          4.2918     0.2470     0.9281 C.ar         1    LIG   0.0000
  27 C27          3.7316    -0.4316     2.0086 C.ar         1    LIG   0.0000
  28 C28          4.5080    -1.0219     2.9978 C.ar         1    LIG   0.0000
  29 C29          3.8349    -1.7473     4.1518 C.3          1    LIG   0.0000
  30 H            7.7385    -1.3999     3.7245 H            1    LIG   0.0000
  31 H            6.5753    -1.1554     4.8443 H            1    LIG   0.0000
  32 H            6.6052    -2.5457     3.9881 H            1    LIG   0.0000
  33 H            7.4610    -0.1929     1.7542 H            1    LIG   0.0000
  34 H            7.3544     3.4378    -1.1080 H            1    LIG   0.0000
  35 H            8.3424     4.5922    -2.9609 H            1    LIG   0.0000
  36 H            7.6506     4.0837    -5.1903 H            1    LIG   0.0000
  37 H            5.9756     2.4268    -5.5822 H            1    LIG   0.0000
  38 H            4.9809     1.2691    -3.7344 H            1    LIG   0.0000
  39 H            3.5473     1.9334    -1.8369 H            1    LIG   0.0000
  40 H           -0.4364     4.2231     0.1031 H            1    LIG   0.0000
  41 H           -5.0062     1.8259     0.1065 H            1    LIG   0.0000
  42 H           -5.0408     3.2175     0.9603 H            1    LIG   0.0000
  43 H           -5.0701     3.2600    -0.6719 H            1    LIG   0.0000
  44 H           -2.7462     0.7680     0.0356 H            1    LIG   0.0000
  45 H            2.7358    -0.4958     2.0742 H            1    LIG   0.0000
  46 H            2.8421    -1.7005     4.0412 H            1    LIG   0.0000
  47 H            4.1248    -2.7043     4.1585 H            1    LIG   0.0000
  48 H            4.0949    -1.3142     5.0148 H            1    LIG   0.0000
@<TRIPOS>BOND
   1        1        2 1
   2        2        3 ar
   3        3        4 ar
   4        4        5 ar
   5        5        6 ar
   6        6        7 1
   7        7        8 ar
   8        8        9 ar
   9        9       10 ar
  10       10       11 ar
  11       11       12 ar
  12       12        7 ar
  13        6       13 ar
  14       13       14 ar
  15       14       15 1
  16       15       16 2
  17       16       17 1
  18       17       18 2
  19       18       19 1
  20       19       20 1
  21       20       21 2
  22       21       22 1
  23       22       23 1
  24       22       24 1
  25       24       19 2
  26       18       25 1
  27       25       15 1
  28       14       26 ar
  29       26        4 ar
  30       26       27 ar
  31       27       28 ar
  32       28        2 ar
  33       28       29 1
  34        1       30 1
  35        1       31 1
  36        1       32 1
  37        3       33 1
  38        8       34 1
  39        9       35 1
  40       10       36 1
  41       11       37 1
  42       12       38 1
  43       13       39 1
  44       20       40 1
  45       23       41 1
  46       23       42 1
  47       23       43 1
  48       24       44 1
  49       27       45 1
  50       29       46 1
  51       29       47 1
  52       29       48 1

