@<TRIPOS>MOLECULE
*****
 48 52 0 0 0
SMALL
USER_CHARGES

@<TRIPOS>ATOM
      1 C1          6.7839   -3.8300   -0.2448 C.3     1  LIG1        0.0000
      2 C2          5.8956   -2.5975   -0.1952 C.ar    1  LIG1        0.0000
      3 C3          6.4675   -1.3288   -0.1701 C.ar    1  LIG1        0.0000
      4 C4          5.6805   -0.1814   -0.1251 C.ar    1  LIG1        0.0000
      5 N5          6.2315    1.0432   -0.0990 N.ar    1  LIG1        0.0000
      6 C6          5.4885    2.1623   -0.0548 C.ar    1  LIG1        0.0000
      7 C7          6.0901    3.4816   -0.0271 C.ar    1  LIG1        0.0000
      8 C8          7.4754    3.6069   -0.0465 C.ar    1  LIG1        0.0000
      9 C9          8.0438    4.8760   -0.0189 C.ar    1  LIG1        0.0000
     10 C10         7.2290    6.0031    0.0271 C.ar    1  LIG1        0.0000
     11 C11         5.8446    5.8685    0.0459 C.ar    1  LIG1        0.0000
     12 C12         5.2678    4.6027    0.0193 C.ar    1  LIG1        0.0000
     13 C13         4.1000    2.0939   -0.0343 C.ar    1  LIG1        0.0000
     14 C14         3.5047    0.8381   -0.0596 C.ar    1  LIG1        0.0000
     15 C15         2.0542    0.7920   -0.0365 C.2     1  LIG1        0.0000
     16 N16         1.3290   -0.3020   -0.0552 N.2     1  LIG1        0.0000
     17 N17         0.0673    0.0617   -0.0245 N.2     1  LIG1        0.0000
     18 C18         0.0360    1.3714    0.0118 C.2     1  LIG1        0.0000
     19 C19        -1.1676    2.1839    0.0532 C.2     1  LIG1        0.0000
     20 C20        -1.2143    3.5947    0.0935 C.2     1  LIG1        0.0000
     21 N21        -2.4886    3.9126    0.1156 N.2     1  LIG1        0.0000
     22 N22        -3.2370    2.8314    0.1009 N.pl3   1  LIG1        0.0000
     23 C23        -4.7059    2.7796    0.1260 C.3     1  LIG1        0.0000
     24 C24        -2.4476    1.7221    0.0584 C.2     1  LIG1        0.0000
     25 O25         1.2628    1.8358    0.0059 O.2     1  LIG1        0.0000
     26 C26         4.2931   -0.3111   -0.1049 C.ar    1  LIG1        0.0000
     27 C27         3.7343   -1.5874   -0.1318 C.ar    1  LIG1        0.0000
     28 C28         4.5121   -2.7376   -0.1754 C.ar    1  LIG1        0.0000
     29 C29         3.8405   -4.1011   -0.2020 C.3     1  LIG1        0.0000
     30 H           7.7436   -3.5491   -0.2535 H       1  LIG1        0.0000
     31 H           6.6103   -4.3986    0.5593 H       1  LIG1        0.0000
     32 H           6.5822   -4.3532   -1.0728 H       1  LIG1        0.0000
     33 H           7.4635   -1.2398   -0.1847 H       1  LIG1        0.0000
     34 H           8.0561    2.7935   -0.0798 H       1  LIG1        0.0000
     35 H           9.0385    4.9786   -0.0322 H       1  LIG1        0.0000
     36 H           7.6406    6.9143    0.0468 H       1  LIG1        0.0000
     37 H           5.2637    6.6818    0.0786 H       1  LIG1        0.0000
     38 H           4.2732    4.4999    0.0333 H       1  LIG1        0.0000
     39 H           3.5449    2.9251   -0.0023 H       1  LIG1        0.0000
     40 H          -0.4364    4.2231    0.1031 H       1  LIG1        0.0000
     41 H          -5.0062    1.8259    0.1065 H       1  LIG1        0.0000
     42 H          -5.0408    3.2175    0.9603 H       1  LIG1        0.0000
     43 H          -5.0701    3.2600   -0.6719 H       1  LIG1        0.0000
     44 H          -2.7462    0.7680    0.0356 H       1  LIG1        0.0000
     45 H           2.7385   -1.6785   -0.1193 H       1  LIG1        0.0000
     46 H           2.8476   -3.9841   -0.1816 H       1  LIG1        0.0000
     47 H           4.1021   -4.5853   -1.0370 H       1  LIG1        0.0000
     48 H           4.1301   -4.6310    0.5952 H       1  LIG1        0.0000
@<TRIPOS>BOND
     1     1     2    1
     2     2     3   ar
     3     3     4   ar
     4     4     5   ar
     5     5     6   ar
     6     6     7    1
     7     7     8   ar
     8     8     9   ar
     9     9    10   ar
    10    10    11   ar
    11    11    12   ar
    12    12     7   ar
    13     6    13   ar
    14    13    14   ar
    15    14    15    1
    16    15    16    2
    17    16    17    1
    18    17    18    2
    19    18    19    1
    20    19    20    1
    21    20    21    2
    22    21    22    1
    23    22    23    1
    24    22    24    1
    25    24    19    2
    26    18    25    1
    27    25    15    1
    28    14    26   ar
    29    26     4   ar
    30    26    27   ar
    31    27    28   ar
    32    28     2   ar
    33    28    29    1
    34     1    30    1
    35     1    31    1
    36     1    32    1
    37     3    33    1
    38     8    34    1
    39     9    35    1
    40    10    36    1
    41    11    37    1
    42    12    38    1
    43    13    39    1
    44    20    40    1
    45    23    41    1
    46    23    42    1
    47    23    43    1
    48    24    44    1
    49    27    45    1
    50    29    46    1
    51    29    47    1
    52    29    48    1
