@<TRIPOS>MOLECULE
*****
 48 52 0 0 0
SMALL
USER_CHARGES

@<TRIPOS>ATOM
      1 C1          6.6400   -1.3310   -4.3074 C.3     1  LIG1        0.0000
      2 C2          5.7897   -0.7589   -3.1847 C.ar    1  LIG1        0.0000
      3 C3          6.3993   -0.1445   -2.0947 C.ar    1  LIG1        0.0000
      4 C4          5.6476    0.3891   -1.0515 C.ar    1  LIG1        0.0000
      5 N5          6.2350    0.9807    0.0015 N.ar    1  LIG1        0.0000
      6 C6          5.5266    1.5009    1.0183 C.ar    1  LIG1        0.0000
      7 C7          6.1674    2.1386    2.1523 C.ar    1  LIG1        0.0000
      8 C8          7.5551    2.2209    2.2019 C.ar    1  LIG1        0.0000
      9 C9          8.1614    2.8335    3.2937 C.ar    1  LIG1        0.0000
     10 C10         7.3813    3.3561    4.3208 C.ar    1  LIG1        0.0000
     11 C11         5.9942    3.2695    4.2627 C.ar    1  LIG1        0.0000
     12 C12         5.3798    2.6577    3.1746 C.ar    1  LIG1        0.0000
     13 C13         4.1373    1.4460    1.0185 C.ar    1  LIG1        0.0000
     14 C14         3.5047    0.8381   -0.0596 C.ar    1  LIG1        0.0000
     15 C15         2.0542    0.7920   -0.0365 C.2     1  LIG1        0.0000
     16 N16         1.3290   -0.3020   -0.0552 N.2     1  LIG1        0.0000
     17 N17         0.0673    0.0617   -0.0245 N.2     1  LIG1        0.0000
     18 C18         0.0360    1.3714    0.0118 C.2     1  LIG1        0.0000
     19 C19        -1.1676    2.1839    0.0532 C.2     1  LIG1        0.0000
     20 C20        -2.4944    1.7001    0.0601 C.2     1  LIG1        0.0000
     21 N21        -3.2651    2.7628    0.1083 N.2     1  LIG1        0.0000
     22 N22        -2.5415    3.8607    0.1238 N.pl3   1  LIG1        0.0000
     23 C23        -3.0422    5.2421    0.1665 C.3     1  LIG1        0.0000
     24 C24        -1.2171    3.5431    0.0937 C.2     1  LIG1        0.0000
     25 O25         1.2628    1.8358    0.0059 O.2     1  LIG1        0.0000
     26 C26         4.2577    0.3038   -1.1045 C.ar    1  LIG1        0.0000
     27 C27         3.6609   -0.3129   -2.2024 C.ar    1  LIG1        0.0000
     28 C28         4.4033   -0.8492   -3.2469 C.ar    1  LIG1        0.0000
     29 C29         3.6912   -1.5100   -4.4162 C.3     1  LIG1        0.0000
     30 H           7.6072   -1.1809   -4.1027 H       1  LIG1        0.0000
     31 H           6.4653   -2.3121   -4.3910 H       1  LIG1        0.0000
     32 H           6.4067   -0.8764   -5.1670 H       1  LIG1        0.0000
     33 H           7.3970   -0.0852   -2.0602 H       1  LIG1        0.0000
     34 H           8.1107    1.8439    1.4609 H       1  LIG1        0.0000
     35 H           9.1582    2.8984    3.3405 H       1  LIG1        0.0000
     36 H           7.8201    3.7959    5.1044 H       1  LIG1        0.0000
     37 H           5.4384    3.6470    5.0033 H       1  LIG1        0.0000
     38 H           4.3830    2.5920    3.1279 H       1  LIG1        0.0000
     39 H           3.6078    1.8331    1.7734 H       1  LIG1        0.0000
     40 H          -2.7872    0.7443    0.0338 H       1  LIG1        0.0000
     41 H          -2.2694    5.8768    0.1697 H       1  LIG1        0.0000
     42 H          -3.6123    5.4150   -0.6367 H       1  LIG1        0.0000
     43 H          -3.5855    5.3743    0.9956 H       1  LIG1        0.0000
     44 H          -0.4432    4.1764    0.1001 H       1  LIG1        0.0000
     45 H           2.6633   -0.3714   -2.2397 H       1  LIG1        0.0000
     46 H           2.7028   -1.4712   -4.2696 H       1  LIG1        0.0000
     47 H           3.9219   -1.0289   -5.2620 H       1  LIG1        0.0000
     48 H           3.9806   -2.4647   -4.4863 H       1  LIG1        0.0000
@<TRIPOS>BOND
     1     1     2    1
     2     2     3   ar
     3     3     4   ar
     4     4     5   ar
     5     5     6   ar
     6     6     7    1
     7     7     8   ar
     8     8     9   ar
     9     9    10   ar
    10    10    11   ar
    11    11    12   ar
    12    12     7   ar
    13     6    13   ar
    14    13    14   ar
    15    14    15    1
    16    15    16    2
    17    16    17    1
    18    17    18    2
    19    18    19    1
    20    19    20    1
    21    20    21    2
    22    21    22    1
    23    22    23    1
    24    22    24    1
    25    24    19    2
    26    18    25    1
    27    25    15    1
    28    14    26   ar
    29    26     4   ar
    30    26    27   ar
    31    27    28   ar
    32    28     2   ar
    33    28    29    1
    34     1    30    1
    35     1    31    1
    36     1    32    1
    37     3    33    1
    38     8    34    1
    39     9    35    1
    40    10    36    1
    41    11    37    1
    42    12    38    1
    43    13    39    1
    44    20    40    1
    45    23    41    1
    46    23    42    1
    47    23    43    1
    48    24    44    1
    49    27    45    1
    50    29    46    1
    51    29    47    1
    52    29    48    1
