@<TRIPOS>MOLECULE
*****
 48 52 0 0 0
SMALL
USER_CHARGES

@<TRIPOS>ATOM
      1 C1          6.7785   -1.5614    3.9533 C.3     1  LIG1        0.0000
      2 C2          5.8916   -0.9280    2.8936 C.ar    1  LIG1        0.0000
      3 C3          6.4650   -0.2543    1.8191 C.ar    1  LIG1        0.0000
      4 C4          5.6793    0.3356    0.8328 C.ar    1  LIG1        0.0000
      5 N5          6.2316    0.9874   -0.2035 N.ar    1  LIG1        0.0000
      6 C6          5.4899    1.5638   -1.1648 C.ar    1  LIG1        0.0000
      7 C7          6.0930    2.2658   -2.2813 C.ar    1  LIG1        0.0000
      8 C8          7.0681    3.2288   -2.0431 C.ar    1  LIG1        0.0000
      9 C9          7.6406    3.8978   -3.1198 C.ar    1  LIG1        0.0000
     10 C10         7.2371    3.6011   -4.4182 C.ar    1  LIG1        0.0000
     11 C11         6.2615    2.6364   -4.6471 C.ar    1  LIG1        0.0000
     12 C12         5.6832    1.9630   -3.5757 C.ar    1  LIG1        0.0000
     13 C13         4.1014    1.5061   -1.1225 C.ar    1  LIG1        0.0000
     14 C14         3.5047    0.8381   -0.0596 C.ar    1  LIG1        0.0000
     15 C15         2.0542    0.7920   -0.0365 C.2     1  LIG1        0.0000
     16 N16         1.3290   -0.3020   -0.0552 N.2     1  LIG1        0.0000
     17 N17         0.0673    0.0617   -0.0245 N.2     1  LIG1        0.0000
     18 C18         0.0360    1.3714    0.0118 C.2     1  LIG1        0.0000
     19 C19        -1.1676    2.1839    0.0532 C.2     1  LIG1        0.0000
     20 C20        -1.2143    3.5947    0.0935 C.2     1  LIG1        0.0000
     21 N21        -2.4886    3.9126    0.1156 N.2     1  LIG1        0.0000
     22 N22        -3.2370    2.8314    0.1009 N.pl3   1  LIG1        0.0000
     23 C23        -4.7059    2.7796    0.1260 C.3     1  LIG1        0.0000
     24 C24        -2.4476    1.7221    0.0584 C.2     1  LIG1        0.0000
     25 O25         1.2628    1.8358    0.0059 O.2     1  LIG1        0.0000
     26 C26         4.2918    0.2470    0.9281 C.ar    1  LIG1        0.0000
     27 C27         3.7316   -0.4316    2.0086 C.ar    1  LIG1        0.0000
     28 C28         4.5080   -1.0219    2.9978 C.ar    1  LIG1        0.0000
     29 C29         3.8349   -1.7473    4.1518 C.3     1  LIG1        0.0000
     30 H           7.7385   -1.3999    3.7245 H       1  LIG1        0.0000
     31 H           6.5753   -1.1554    4.8443 H       1  LIG1        0.0000
     32 H           6.6052   -2.5457    3.9881 H       1  LIG1        0.0000
     33 H           7.4610   -0.1929    1.7542 H       1  LIG1        0.0000
     34 H           7.3544    3.4378   -1.1080 H       1  LIG1        0.0000
     35 H           8.3424    4.5922   -2.9609 H       1  LIG1        0.0000
     36 H           7.6506    4.0837   -5.1903 H       1  LIG1        0.0000
     37 H           5.9756    2.4268   -5.5822 H       1  LIG1        0.0000
     38 H           4.9809    1.2691   -3.7344 H       1  LIG1        0.0000
     39 H           3.5473    1.9334   -1.8369 H       1  LIG1        0.0000
     40 H          -0.4364    4.2231    0.1031 H       1  LIG1        0.0000
     41 H          -5.0062    1.8259    0.1065 H       1  LIG1        0.0000
     42 H          -5.0408    3.2175    0.9603 H       1  LIG1        0.0000
     43 H          -5.0701    3.2600   -0.6719 H       1  LIG1        0.0000
     44 H          -2.7462    0.7680    0.0356 H       1  LIG1        0.0000
     45 H           2.7358   -0.4958    2.0742 H       1  LIG1        0.0000
     46 H           2.8421   -1.7005    4.0412 H       1  LIG1        0.0000
     47 H           4.1248   -2.7043    4.1585 H       1  LIG1        0.0000
     48 H           4.0949   -1.3142    5.0148 H       1  LIG1        0.0000
@<TRIPOS>BOND
     1     1     2    1
     2     2     3   ar
     3     3     4   ar
     4     4     5   ar
     5     5     6   ar
     6     6     7    1
     7     7     8   ar
     8     8     9   ar
     9     9    10   ar
    10    10    11   ar
    11    11    12   ar
    12    12     7   ar
    13     6    13   ar
    14    13    14   ar
    15    14    15    1
    16    15    16    2
    17    16    17    1
    18    17    18    2
    19    18    19    1
    20    19    20    1
    21    20    21    2
    22    21    22    1
    23    22    23    1
    24    22    24    1
    25    24    19    2
    26    18    25    1
    27    25    15    1
    28    14    26   ar
    29    26     4   ar
    30    26    27   ar
    31    27    28   ar
    32    28     2   ar
    33    28    29    1
    34     1    30    1
    35     1    31    1
    36     1    32    1
    37     3    33    1
    38     8    34    1
    39     9    35    1
    40    10    36    1
    41    11    37    1
    42    12    38    1
    43    13    39    1
    44    20    40    1
    45    23    41    1
    46    23    42    1
    47    23    43    1
    48    24    44    1
    49    27    45    1
    50    29    46    1
    51    29    47    1
    52    29    48    1
