@<TRIPOS>MOLECULE
*****
 48 52 0 0 0
SMALL
USER_CHARGES

@<TRIPOS>ATOM
      1 C1          6.6292    3.2061    4.0888 C.3     1  LIG1        0.0000
      2 C2          5.7818    2.5800    2.9930 C.ar    1  LIG1        0.0000
      3 C3          6.3942    2.0045    1.8837 C.ar    1  LIG1        0.0000
      4 C4          5.6452    1.4231    0.8643 C.ar    1  LIG1        0.0000
      5 N5          6.2353    0.8690   -0.2075 N.ar    1  LIG1        0.0000
      6 C6          5.5294    0.3038   -1.2017 C.ar    1  LIG1        0.0000
      7 C7          6.1731   -0.2930   -2.3562 C.ar    1  LIG1        0.0000
      8 C8          7.2074   -1.2048   -2.1726 C.ar    1  LIG1        0.0000
      9 C9          7.8196   -1.7718   -3.2855 C.ar    1  LIG1        0.0000
     10 C10         7.3961   -1.4257   -4.5651 C.ar    1  LIG1        0.0000
     11 C11         6.3608   -0.5131   -4.7392 C.ar    1  LIG1        0.0000
     12 C12         5.7435    0.0592   -3.6315 C.ar    1  LIG1        0.0000
     13 C13         4.1401    0.2705   -1.1578 C.ar    1  LIG1        0.0000
     14 C14         3.5047    0.8381   -0.0596 C.ar    1  LIG1        0.0000
     15 C15         2.0542    0.7920   -0.0365 C.2     1  LIG1        0.0000
     16 N16         1.3290   -0.3020   -0.0552 N.2     1  LIG1        0.0000
     17 N17         0.0673    0.0617   -0.0245 N.2     1  LIG1        0.0000
     18 C18         0.0360    1.3714    0.0118 C.2     1  LIG1        0.0000
     19 C19        -1.1676    2.1839    0.0532 C.2     1  LIG1        0.0000
     20 C20        -1.3754    3.3937   -0.6450 C.2     1  LIG1        0.0000
     21 N21        -2.5887    3.7872   -0.3310 N.2     1  LIG1        0.0000
     22 N22        -3.1504    2.9394    0.5027 N.pl3   1  LIG1        0.0000
     23 C23        -4.4961    3.0416    1.0855 C.3     1  LIG1        0.0000
     24 C24        -2.2934    1.9144    0.7686 C.2     1  LIG1        0.0000
     25 O25         1.2628    1.8358    0.0059 O.2     1  LIG1        0.0000
     26 C26         4.2551    1.4202    0.9615 C.ar    1  LIG1        0.0000
     27 C27         3.6555    1.9988    2.0784 C.ar    1  LIG1        0.0000
     28 C28         4.3951    2.5822    3.0994 C.ar    1  LIG1        0.0000
     29 C29         3.6800    3.1977    4.2913 C.3     1  LIG1        0.0000
     30 H           7.5970    3.1175    3.8533 H       1  LIG1        0.0000
     31 H           6.3954    4.1742    4.1789 H       1  LIG1        0.0000
     32 H           6.4526    2.7385    4.9549 H       1  LIG1        0.0000
     33 H           7.3920    2.0086    1.8175 H       1  LIG1        0.0000
     34 H           7.5075   -1.4500   -1.2508 H       1  LIG1        0.0000
     35 H           8.5644   -2.4283   -3.1660 H       1  LIG1        0.0000
     36 H           7.8382   -1.8350   -5.3632 H       1  LIG1        0.0000
     37 H           6.0601   -0.2683   -5.6610 H       1  LIG1        0.0000
     38 H           4.9992    0.7163   -3.7508 H       1  LIG1        0.0000
     39 H           3.6126   -0.1502   -1.8959 H       1  LIG1        0.0000
     40 H          -0.7308    3.8561   -1.2538 H       1  LIG1        0.0000
     41 H          -4.6603    2.2579    1.6845 H       1  LIG1        0.0000
     42 H          -4.5665    3.8867    1.6154 H       1  LIG1        0.0000
     43 H          -5.1768    3.0497    0.3530 H       1  LIG1        0.0000
     44 H          -2.4572    1.1285    1.3647 H       1  LIG1        0.0000
     45 H           2.6579    1.9939    2.1474 H       1  LIG1        0.0000
     46 H           2.6918    3.0960    4.1761 H       1  LIG1        0.0000
     47 H           3.9674    2.7331    5.1289 H       1  LIG1        0.0000
     48 H           3.9102    4.1689    4.3531 H       1  LIG1        0.0000
@<TRIPOS>BOND
     1     1     2    1
     2     2     3   ar
     3     3     4   ar
     4     4     5   ar
     5     5     6   ar
     6     6     7    1
     7     7     8   ar
     8     8     9   ar
     9     9    10   ar
    10    10    11   ar
    11    11    12   ar
    12    12     7   ar
    13     6    13   ar
    14    13    14   ar
    15    14    15    1
    16    15    16    2
    17    16    17    1
    18    17    18    2
    19    18    19    1
    20    19    20    1
    21    20    21    2
    22    21    22    1
    23    22    23    1
    24    22    24    1
    25    24    19    2
    26    18    25    1
    27    25    15    1
    28    14    26   ar
    29    26     4   ar
    30    26    27   ar
    31    27    28   ar
    32    28     2   ar
    33    28    29    1
    34     1    30    1
    35     1    31    1
    36     1    32    1
    37     3    33    1
    38     8    34    1
    39     9    35    1
    40    10    36    1
    41    11    37    1
    42    12    38    1
    43    13    39    1
    44    20    40    1
    45    23    41    1
    46    23    42    1
    47    23    43    1
    48    24    44    1
    49    27    45    1
    50    29    46    1
    51    29    47    1
    52    29    48    1
