@<TRIPOS>MOLECULE
*****
 48 52 0 0 0
SMALL
USER_CHARGES

@<TRIPOS>ATOM
      1 C1          6.4906    3.4365   -4.1719 C.3     1  LIG1        0.0000
      2 C2          5.6798    2.7491   -3.0853 C.ar    1  LIG1        0.0000
      3 C3          6.3286    2.1143   -2.0301 C.ar    1  LIG1        0.0000
      4 C4          5.6136    1.4767   -1.0201 C.ar    1  LIG1        0.0000
      5 N5          6.2387    0.8623   -0.0024 N.ar    1  LIG1        0.0000
      6 C6          5.5660    0.2410    0.9814 C.ar    1  LIG1        0.0000
      7 C7          6.2476   -0.4203    2.0775 C.ar    1  LIG1        0.0000
      8 C8          7.6378   -0.4191    2.1244 C.ar    1  LIG1        0.0000
      9 C9          8.2831   -1.0563    3.1789 C.ar    1  LIG1        0.0000
     10 C10         7.5392   -1.6857    4.1724 C.ar    1  LIG1        0.0000
     11 C11         6.1492   -1.6817    4.1176 C.ar    1  LIG1        0.0000
     12 C12         5.4958   -1.0471    3.0659 C.ar    1  LIG1        0.0000
     13 C13         4.1760    0.2103    0.9832 C.ar    1  LIG1        0.0000
     14 C14         3.5047    0.8381   -0.0596 C.ar    1  LIG1        0.0000
     15 C15         2.0542    0.7920   -0.0365 C.2     1  LIG1        0.0000
     16 N16         1.3290   -0.3020   -0.0552 N.2     1  LIG1        0.0000
     17 N17         0.0673    0.0617   -0.0245 N.2     1  LIG1        0.0000
     18 C18         0.0360    1.3714    0.0118 C.2     1  LIG1        0.0000
     19 C19        -1.1676    2.1839    0.0532 C.2     1  LIG1        0.0000
     20 C20        -1.3527    3.3525    0.8241 C.2     1  LIG1        0.0000
     21 N21        -2.5703    3.7691    0.5605 N.2     1  LIG1        0.0000
     22 N22        -3.1610    2.9643   -0.2955 N.pl3   1  LIG1        0.0000
     23 C23        -4.5266    3.0937   -0.8241 C.3     1  LIG1        0.0000
     24 C24        -2.3140    1.9558   -0.6436 C.2     1  LIG1        0.0000
     25 O25         1.2628    1.8358    0.0059 O.2     1  LIG1        0.0000
     26 C26         4.2210    1.4769   -1.0712 C.ar    1  LIG1        0.0000
     27 C27         3.5848    2.1175   -2.1327 C.ar    1  LIG1        0.0000
     28 C28         4.2904    2.7549   -3.1454 C.ar    1  LIG1        0.0000
     29 C29         3.5363    3.4349   -4.2767 C.3     1  LIG1        0.0000
     30 H           7.4657    3.3365   -3.9739 H       1  LIG1        0.0000
     31 H           6.2854    3.0175   -5.0564 H       1  LIG1        0.0000
     32 H           6.2542    4.4077   -4.2002 H       1  LIG1        0.0000
     33 H           7.3280    2.1163   -1.9969 H       1  LIG1        0.0000
     34 H           8.1674    0.0349    1.4079 H       1  LIG1        0.0000
     35 H           9.2821   -1.0623    3.2232 H       1  LIG1        0.0000
     36 H           8.0060   -2.1430    4.9293 H       1  LIG1        0.0000
     37 H           5.6194   -2.1350    4.8344 H       1  LIG1        0.0000
     38 H           4.4968   -1.0417    3.0210 H       1  LIG1        0.0000
     39 H           3.6731   -0.2506    1.7144 H       1  LIG1        0.0000
     40 H          -0.6920    3.7762    1.4439 H       1  LIG1        0.0000
     41 H          -4.7118    2.3417   -1.4566 H       1  LIG1        0.0000
     42 H          -5.1808    3.0625   -0.0684 H       1  LIG1        0.0000
     43 H          -4.6160    3.9649   -1.3067 H       1  LIG1        0.0000
     44 H          -2.4965    1.2050   -1.2783 H       1  LIG1        0.0000
     45 H           2.5854    2.1183   -2.1666 H       1  LIG1        0.0000
     46 H           2.5525    3.3254   -4.1348 H       1  LIG1        0.0000
     47 H           3.7646    4.4084   -4.2916 H       1  LIG1        0.0000
     48 H           3.7958    3.0183   -5.1480 H       1  LIG1        0.0000
@<TRIPOS>BOND
     1     1     2    1
     2     2     3   ar
     3     3     4   ar
     4     4     5   ar
     5     5     6   ar
     6     6     7    1
     7     7     8   ar
     8     8     9   ar
     9     9    10   ar
    10    10    11   ar
    11    11    12   ar
    12    12     7   ar
    13     6    13   ar
    14    13    14   ar
    15    14    15    1
    16    15    16    2
    17    16    17    1
    18    17    18    2
    19    18    19    1
    20    19    20    1
    21    20    21    2
    22    21    22    1
    23    22    23    1
    24    22    24    1
    25    24    19    2
    26    18    25    1
    27    25    15    1
    28    14    26   ar
    29    26     4   ar
    30    26    27   ar
    31    27    28   ar
    32    28     2   ar
    33    28    29    1
    34     1    30    1
    35     1    31    1
    36     1    32    1
    37     3    33    1
    38     8    34    1
    39     9    35    1
    40    10    36    1
    41    11    37    1
    42    12    38    1
    43    13    39    1
    44    20    40    1
    45    23    41    1
    46    23    42    1
    47    23    43    1
    48    24    44    1
    49    27    45    1
    50    29    46    1
    51    29    47    1
    52    29    48    1
