@<TRIPOS>MOLECULE
*****
 48 52 0 0 0
SMALL
USER_CHARGES

@<TRIPOS>ATOM
      1 C1          6.8004   -2.8001    2.8525 C.3     1  LIG1        0.0000
      2 C2          5.9077   -1.8395    2.0838 C.ar    1  LIG1        0.0000
      3 C3          6.4754   -0.8411    1.2975 C.ar    1  LIG1        0.0000
      4 C4          5.6842    0.0532    0.5816 C.ar    1  LIG1        0.0000
      5 N5          6.2310    1.0180   -0.1760 N.ar    1  LIG1        0.0000
      6 C6          5.4841    1.8909   -0.8736 C.ar    1  LIG1        0.0000
      7 C7          6.0812    2.9302   -1.6900 C.ar    1  LIG1        0.0000
      8 C8          7.0657    3.7503   -1.1485 C.ar    1  LIG1        0.0000
      9 C9          7.6325    4.7450   -1.9385 C.ar    1  LIG1        0.0000
     10 C10         7.2140    4.9114   -3.2552 C.ar    1  LIG1        0.0000
     11 C11         6.2290    4.0865   -3.7885 C.ar    1  LIG1        0.0000
     12 C12         5.6565    3.0896   -3.0050 C.ar    1  LIG1        0.0000
     13 C13         4.0957    1.8271   -0.8371 C.ar    1  LIG1        0.0000
     14 C14         3.5047    0.8381   -0.0596 C.ar    1  LIG1        0.0000
     15 C15         2.0542    0.7920   -0.0365 C.2     1  LIG1        0.0000
     16 N16         1.3290   -0.3020   -0.0552 N.2     1  LIG1        0.0000
     17 N17         0.0673    0.0617   -0.0245 N.2     1  LIG1        0.0000
     18 C18         0.0360    1.3714    0.0118 C.2     1  LIG1        0.0000
     19 C19        -1.1676    2.1839    0.0532 C.2     1  LIG1        0.0000
     20 C20        -2.3560    1.9423   -0.6705 C.2     1  LIG1        0.0000
     21 N21        -3.1835    2.9063   -0.3366 N.2     1  LIG1        0.0000
     22 N22        -2.6175    3.7278    0.5202 N.pl3   1  LIG1        0.0000
     23 C23        -3.2216    4.9280    1.1166 C.3     1  LIG1        0.0000
     24 C24        -1.3508    3.3094    0.7957 C.2     1  LIG1        0.0000
     25 O25         1.2628    1.8358    0.0059 O.2     1  LIG1        0.0000
     26 C26         4.2972   -0.0577    0.6573 C.ar    1  LIG1        0.0000
     27 C27         3.7427   -1.0628    1.4473 C.ar    1  LIG1        0.0000
     28 C28         4.5246   -1.9585    2.1659 C.ar    1  LIG1        0.0000
     29 C29         3.8576   -3.0323    3.0104 C.3     1  LIG1        0.0000
     30 H           7.7592   -2.5735    2.6814 H       1  LIG1        0.0000
     31 H           6.6090   -2.7224    3.8310 H       1  LIG1        0.0000
     32 H           6.6202   -3.7364    2.5510 H       1  LIG1        0.0000
     33 H           7.4711   -0.7647    1.2457 H       1  LIG1        0.0000
     34 H           7.3628    3.6260   -0.2018 H       1  LIG1        0.0000
     35 H           8.3409    5.3408   -1.5601 H       1  LIG1        0.0000
     36 H           7.6233    5.6274   -3.8207 H       1  LIG1        0.0000
     37 H           5.9323    4.2102   -4.7355 H       1  LIG1        0.0000
     38 H           4.9475    2.4942   -3.3830 H       1  LIG1        0.0000
     39 H           3.5377    2.4749   -1.3559 H       1  LIG1        0.0000
     40 H          -2.5316    1.1912   -1.3069 H       1  LIG1        0.0000
     41 H          -2.5638    5.3611    1.7329 H       1  LIG1        0.0000
     42 H          -3.4722    5.5701    0.3921 H       1  LIG1        0.0000
     43 H          -4.0395    4.6693    1.6304 H       1  LIG1        0.0000
     44 H          -0.6930    3.7394    1.4141 H       1  LIG1        0.0000
     45 H           2.7472   -1.1422    1.4988 H       1  LIG1        0.0000
     46 H           2.8641   -2.9470    2.9342 H       1  LIG1        0.0000
     47 H           4.1405   -3.9349    2.6861 H       1  LIG1        0.0000
     48 H           4.1293   -2.9212    3.9663 H       1  LIG1        0.0000
@<TRIPOS>BOND
     1     1     2    1
     2     2     3   ar
     3     3     4   ar
     4     4     5   ar
     5     5     6   ar
     6     6     7    1
     7     7     8   ar
     8     8     9   ar
     9     9    10   ar
    10    10    11   ar
    11    11    12   ar
    12    12     7   ar
    13     6    13   ar
    14    13    14   ar
    15    14    15    1
    16    15    16    2
    17    16    17    1
    18    17    18    2
    19    18    19    1
    20    19    20    1
    21    20    21    2
    22    21    22    1
    23    22    23    1
    24    22    24    1
    25    24    19    2
    26    18    25    1
    27    25    15    1
    28    14    26   ar
    29    26     4   ar
    30    26    27   ar
    31    27    28   ar
    32    28     2   ar
    33    28    29    1
    34     1    30    1
    35     1    31    1
    36     1    32    1
    37     3    33    1
    38     8    34    1
    39     9    35    1
    40    10    36    1
    41    11    37    1
    42    12    38    1
    43    13    39    1
    44    20    40    1
    45    23    41    1
    46    23    42    1
    47    23    43    1
    48    24    44    1
    49    27    45    1
    50    29    46    1
    51    29    47    1
    52    29    48    1
