@<TRIPOS>MOLECULE
*****
 48 52 0 0 0
SMALL
USER_CHARGES

@<TRIPOS>ATOM
      1 C1          6.4852    5.7051    0.0262 C.3     1  LIG1        0.0000
      2 C2          5.6758    4.4186    0.0036 C.ar    1  LIG1        0.0000
      3 C3          6.3260    3.1888   -0.0409 C.ar    1  LIG1        0.0000
      4 C4          5.6124    1.9937   -0.0621 C.ar    1  LIG1        0.0000
      5 N5          6.2388    0.8065   -0.1069 N.ar    1  LIG1        0.0000
      6 C6          5.5674   -0.3576   -0.1286 C.ar    1  LIG1        0.0000
      7 C7          6.2504   -1.6361   -0.1767 C.ar    1  LIG1        0.0000
      8 C8          7.6407   -1.6731   -0.2015 C.ar    1  LIG1        0.0000
      9 C9          8.2874   -2.9037   -0.2483 C.ar    1  LIG1        0.0000
     10 C10         7.5447   -4.0803   -0.2696 C.ar    1  LIG1        0.0000
     11 C11         6.1546   -4.0338   -0.2443 C.ar    1  LIG1        0.0000
     12 C12         5.4998   -2.8071   -0.1981 C.ar    1  LIG1        0.0000
     13 C13         4.1774   -0.3774   -0.1050 C.ar    1  LIG1        0.0000
     14 C14         3.5047    0.8381   -0.0596 C.ar    1  LIG1        0.0000
     15 C15         2.0542    0.7920   -0.0365 C.2     1  LIG1        0.0000
     16 N16         1.3290   -0.3020   -0.0552 N.2     1  LIG1        0.0000
     17 N17         0.0673    0.0617   -0.0245 N.2     1  LIG1        0.0000
     18 C18         0.0360    1.3714    0.0118 C.2     1  LIG1        0.0000
     19 C19        -1.1676    2.1839    0.0532 C.2     1  LIG1        0.0000
     20 C20        -1.2143    3.5947    0.0935 C.2     1  LIG1        0.0000
     21 N21        -2.4886    3.9126    0.1156 N.2     1  LIG1        0.0000
     22 N22        -3.2370    2.8314    0.1009 N.pl3   1  LIG1        0.0000
     23 C23        -4.7059    2.7796    0.1260 C.3     1  LIG1        0.0000
     24 C24        -2.4476    1.7221    0.0584 C.2     1  LIG1        0.0000
     25 O25         1.2628    1.8358    0.0059 O.2     1  LIG1        0.0000
     26 C26         4.2196    2.0351   -0.0382 C.ar    1  LIG1        0.0000
     27 C27         3.5821    3.2733    0.0077 C.ar    1  LIG1        0.0000
     28 C28         4.2863    4.4706    0.0278 C.ar    1  LIG1        0.0000
     29 C29         3.5307    5.7888    0.0771 C.3     1  LIG1        0.0000
     30 H           7.4606    5.4857    0.0041 H       1  LIG1        0.0000
     31 H           6.2504    6.2607   -0.7714 H       1  LIG1        0.0000
     32 H           6.2771    6.2152    0.8607 H       1  LIG1        0.0000
     33 H           7.3256    3.1631   -0.0581 H       1  LIG1        0.0000
     34 H           8.1694   -0.8245   -0.1858 H       1  LIG1        0.0000
     35 H           9.2865   -2.9428   -0.2667 H       1  LIG1        0.0000
     36 H           8.0125   -4.9635   -0.3033 H       1  LIG1        0.0000
     37 H           5.6258   -4.8823   -0.2594 H       1  LIG1        0.0000
     38 H           4.5008   -2.7676   -0.1805 H       1  LIG1        0.0000
     39 H           3.6755   -1.2422   -0.1203 H       1  LIG1        0.0000
     40 H          -0.4364    4.2231    0.1031 H       1  LIG1        0.0000
     41 H          -5.0062    1.8259    0.1065 H       1  LIG1        0.0000
     42 H          -5.0408    3.2175    0.9603 H       1  LIG1        0.0000
     43 H          -5.0701    3.2600   -0.6719 H       1  LIG1        0.0000
     44 H          -2.7462    0.7680    0.0356 H       1  LIG1        0.0000
     45 H           2.5826    3.3010    0.0269 H       1  LIG1        0.0000
     46 H           2.5471    5.6090    0.0881 H       1  LIG1        0.0000
     47 H           3.7873    6.2894    0.9038 H       1  LIG1        0.0000
     48 H           3.7606    6.3351   -0.7283 H       1  LIG1        0.0000
@<TRIPOS>BOND
     1     1     2    1
     2     2     3   ar
     3     3     4   ar
     4     4     5   ar
     5     5     6   ar
     6     6     7    1
     7     7     8   ar
     8     8     9   ar
     9     9    10   ar
    10    10    11   ar
    11    11    12   ar
    12    12     7   ar
    13     6    13   ar
    14    13    14   ar
    15    14    15    1
    16    15    16    2
    17    16    17    1
    18    17    18    2
    19    18    19    1
    20    19    20    1
    21    20    21    2
    22    21    22    1
    23    22    23    1
    24    22    24    1
    25    24    19    2
    26    18    25    1
    27    25    15    1
    28    14    26   ar
    29    26     4   ar
    30    26    27   ar
    31    27    28   ar
    32    28     2   ar
    33    28    29    1
    34     1    30    1
    35     1    31    1
    36     1    32    1
    37     3    33    1
    38     8    34    1
    39     9    35    1
    40    10    36    1
    41    11    37    1
    42    12    38    1
    43    13    39    1
    44    20    40    1
    45    23    41    1
    46    23    42    1
    47    23    43    1
    48    24    44    1
    49    27    45    1
    50    29    46    1
    51    29    47    1
    52    29    48    1
