@<TRIPOS>MOLECULE
*****
 48 52 0 0 0
SMALL
USER_CHARGES

@<TRIPOS>ATOM
      1 C1          6.4688    4.6752   -3.0711 C.3     1  LIG1        0.0000
      2 C2          5.6637    3.6606   -2.2754 C.ar    1  LIG1        0.0000
      3 C3          6.3182    2.7011   -1.5085 C.ar    1  LIG1        0.0000
      4 C4          5.6086    1.7591   -0.7688 C.ar    1  LIG1        0.0000
      5 N5          6.2393    0.8317   -0.0299 N.ar    1  LIG1        0.0000
      6 C6          5.5718   -0.0861    0.6902 C.ar    1  LIG1        0.0000
      7 C7          6.2593   -1.0846    1.4862 C.ar    1  LIG1        0.0000
      8 C8          7.2762   -1.8411    0.9129 C.ar    1  LIG1        0.0000
      9 C9          7.9296   -2.7970    1.6834 C.ar    1  LIG1        0.0000
     10 C10         7.5646   -2.9884    3.0126 C.ar    1  LIG1        0.0000
     11 C11         6.5467   -2.2271    3.5778 C.ar    1  LIG1        0.0000
     12 C12         5.8874   -1.2693    2.8138 C.ar    1  LIG1        0.0000
     13 C13         4.1816   -0.1107    0.6978 C.ar    1  LIG1        0.0000
     14 C14         3.5047    0.8381   -0.0596 C.ar    1  LIG1        0.0000
     15 C15         2.0542    0.7920   -0.0365 C.2     1  LIG1        0.0000
     16 N16         1.3290   -0.3020   -0.0552 N.2     1  LIG1        0.0000
     17 N17         0.0673    0.0617   -0.0245 N.2     1  LIG1        0.0000
     18 C18         0.0360    1.3714    0.0118 C.2     1  LIG1        0.0000
     19 C19        -1.1676    2.1839    0.0532 C.2     1  LIG1        0.0000
     20 C20        -2.1896    2.2015   -0.9212 C.2     1  LIG1        0.0000
     21 N21        -3.0834    3.0624   -0.4904 N.2     1  LIG1        0.0000
     22 N22        -2.7082    3.5866    0.6558 N.pl3   1  LIG1        0.0000
     23 C23        -3.4376    4.5914    1.4427 C.3     1  LIG1        0.0000
     24 C24        -1.5109    3.0600    1.0362 C.2     1  LIG1        0.0000
     25 O25         1.2628    1.8358    0.0059 O.2     1  LIG1        0.0000
     26 C26         4.2156    1.7817   -0.8003 C.ar    1  LIG1        0.0000
     27 C27         3.5737    2.7488   -1.5714 C.ar    1  LIG1        0.0000
     28 C28         4.2739    3.6915   -2.3135 C.ar    1  LIG1        0.0000
     29 C29         3.5136    4.7199   -3.1353 C.3     1  LIG1        0.0000
     30 H           7.4450    4.5101   -2.9308 H       1  LIG1        0.0000
     31 H           6.2517    4.5845   -4.0431 H       1  LIG1        0.0000
     32 H           6.2392    5.5984   -2.7630 H       1  LIG1        0.0000
     33 H           7.3179    2.6881   -1.4884 H       1  LIG1        0.0000
     34 H           7.5345   -1.6992   -0.0427 H       1  LIG1        0.0000
     35 H           8.6621   -3.3470    1.2822 H       1  LIG1        0.0000
     36 H           8.0363   -3.6764    3.5641 H       1  LIG1        0.0000
     37 H           6.2886   -2.3684    4.5335 H       1  LIG1        0.0000
     38 H           5.1545   -0.7197    3.2147 H       1  LIG1        0.0000
     39 H           3.6827   -0.7920    1.2334 H       1  LIG1        0.0000
     40 H          -2.2256    1.6679   -1.7662 H       1  LIG1        0.0000
     41 H          -2.9190    4.8077    2.2699 H       1  LIG1        0.0000
     42 H          -3.5556    5.4209    0.8969 H       1  LIG1        0.0000
     43 H          -4.3344    4.2292    1.6967 H       1  LIG1        0.0000
     44 H          -0.9925    3.2727    1.8645 H       1  LIG1        0.0000
     45 H           2.5740    2.7647   -1.5911 H       1  LIG1        0.0000
     46 H           2.5305    4.5719   -3.0277 H       1  LIG1        0.0000
     47 H           3.7488    5.6391   -2.8193 H       1  LIG1        0.0000
     48 H           3.7614    4.6254   -4.0995 H       1  LIG1        0.0000
@<TRIPOS>BOND
     1     1     2    1
     2     2     3   ar
     3     3     4   ar
     4     4     5   ar
     5     5     6   ar
     6     6     7    1
     7     7     8   ar
     8     8     9   ar
     9     9    10   ar
    10    10    11   ar
    11    11    12   ar
    12    12     7   ar
    13     6    13   ar
    14    13    14   ar
    15    14    15    1
    16    15    16    2
    17    16    17    1
    18    17    18    2
    19    18    19    1
    20    19    20    1
    21    20    21    2
    22    21    22    1
    23    22    23    1
    24    22    24    1
    25    24    19    2
    26    18    25    1
    27    25    15    1
    28    14    26   ar
    29    26     4   ar
    30    26    27   ar
    31    27    28   ar
    32    28     2   ar
    33    28    29    1
    34     1    30    1
    35     1    31    1
    36     1    32    1
    37     3    33    1
    38     8    34    1
    39     9    35    1
    40    10    36    1
    41    11    37    1
    42    12    38    1
    43    13    39    1
    44    20    40    1
    45    23    41    1
    46    23    42    1
    47    23    43    1
    48    24    44    1
    49    27    45    1
    50    29    46    1
    51    29    47    1
    52    29    48    1
