@<TRIPOS>MOLECULE

  52   56
SMALL
USER_CHARGES
@<TRIPOS>ATOM
   1 C1           0.1224     0.1224     1.8776 C.3          1    LIG   0.0000
   2 C2           1.0000     1.0000     1.0000 C.3          1    LIG   0.0000
   3 S3          -0.0450     2.0450    -0.0450 S.3          1    LIG   0.0000
   4 C4          -0.9580     2.9580     1.1231 C.2          1    LIG   0.0000
   5 N5          -0.7021     2.7021     2.3905 N.2          1    LIG   0.0000
   6 C6          -1.3591     3.3554     3.4005 C.ar         1    LIG   0.0000
   7 C7          -1.0848     3.0745     4.7349 C.ar         1    LIG   0.0000
   8 C8          -1.7568     3.7391     5.7558 C.ar         1    LIG   0.0000
   9 C9          -2.7157     4.6976     5.4484 C.ar         1    LIG   0.0000
  10 C10         -2.9976     4.9858     4.1174 C.ar         1    LIG   0.0000
  11 C11         -2.3195     4.3167     3.1037 C.ar         1    LIG   0.0000
  12 C12         -2.5908     4.5985     1.7431 C.2          1    LIG   0.0000
  13 N13         -3.4096     5.4443     1.2701 N.2          1    LIG   0.0000
  14 C14         -3.3784     5.4136    -0.1974 C.3          1    LIG   0.0000
  15 C15         -4.7376     4.9327    -0.6795 C.ar         1    LIG   0.0000
  16 C16         -5.3199     5.5230    -1.7964 C.ar         1    LIG   0.0000
  17 C17         -6.5640     5.0773    -2.2302 C.ar         1    LIG   0.0000
  18 C18         -7.2125     4.0515    -1.5492 C.ar         1    LIG   0.0000
  19 C19         -6.6226     3.4668    -0.4334 C.ar         1    LIG   0.0000
  20 C20         -5.3786     3.9071     0.0076 C.ar         1    LIG   0.0000
  21 C21         -2.3502     4.3343    -0.4589 C.2          1    LIG   0.0000
  22 O22         -2.0087     3.9634    -1.5679 O.2          1    LIG   0.0000
  23 N23         -1.9068     3.9031     0.7927 N.pl3        1    LIG   0.0000
  24 C24          1.8776     0.1224     0.1224 C.2          1    LIG   0.0000
  25 O25          1.7997    -1.0725     0.2003 O.2          1    LIG   0.0000
  26 N26          2.7574     0.6957    -0.7574 N.am         1    LIG   0.0000
  27 C27          3.5659    -0.1128    -1.5659 C.ar         1    LIG   0.0000
  28 C28          4.8907     0.2459    -1.7919 C.ar         1    LIG   0.0000
  29 C29          5.6863    -0.5627    -2.5968 C.ar         1    LIG   0.0000
  30 C30          5.1554    -1.7163    -3.1659 C.ar         1    LIG   0.0000
  31 C31          3.8295    -2.0674    -2.9343 C.ar         1    LIG   0.0000
  32 C32          3.0266    -1.2639    -2.1309 C.ar         1    LIG   0.0000
  33 H            1.5774     1.5774     1.5774 H            1    LIG   0.0000
  34 H           -3.1198     6.2943    -0.5943 H            1    LIG   0.0000
  35 H            0.6998    -0.4549     2.4549 H            1    LIG   0.0000
  36 H           -0.4549     0.6998     2.4549 H            1    LIG   0.0000
  37 H           -0.4549    -0.4549     1.3002 H            1    LIG   0.0000
  38 H           -0.3961     2.3863     4.9633 H            1    LIG   0.0000
  39 H           -1.5500     3.5273     6.7110 H            1    LIG   0.0000
  40 H           -3.2000     5.1771     6.1802 H            1    LIG   0.0000
  41 H           -3.6870     5.6732     3.8893 H            1    LIG   0.0000
  42 H           -4.8493     6.2596    -2.2821 H            1    LIG   0.0000
  43 H           -6.9926     5.4942    -3.0318 H            1    LIG   0.0000
  44 H           -8.1069     3.7332    -1.8635 H            1    LIG   0.0000
  45 H           -7.0927     2.7297     0.0521 H            1    LIG   0.0000
  46 H           -4.9502     3.4909     0.8096 H            1    LIG   0.0000
  47 H            2.8223     1.6915    -0.8223 H            1    LIG   0.0000
  48 H            5.2670     1.0759    -1.3802 H            1    LIG   0.0000
  49 H            6.6401    -0.3149    -2.7667 H            1    LIG   0.0000
  50 H            5.7298    -2.2956    -3.7442 H            1    LIG   0.0000
  51 H            3.4532    -2.8977    -3.3454 H            1    LIG   0.0000
  52 H            2.0726    -1.5110    -1.9615 H            1    LIG   0.0000
@<TRIPOS>BOND
   1        1        2 1
   2        2        3 1
   3        3        4 1
   4        4        5 2
   5        5        6 1
   6        6        7 ar
   7        7        8 ar
   8        8        9 ar
   9        9       10 ar
  10       10       11 ar
  11       11        6 ar
  12       11       12 1
  13       12       13 2
  14       13       14 1
  15       14       15 1
  16       15       16 ar
  17       16       17 ar
  18       17       18 ar
  19       18       19 ar
  20       19       20 ar
  21       20       15 ar
  22       14       21 1
  23       21       22 2
  24       21       23 1
  25       23        4 1
  26       23       12 1
  27        2       24 1
  28       24       25 2
  29       24       26 am
  30       26       27 1
  31       27       28 ar
  32       28       29 ar
  33       29       30 ar
  34       30       31 ar
  35       31       32 ar
  36       32       27 ar
  37        2       33 1
  38       14       34 1
  39        1       35 1
  40        1       36 1
  41        1       37 1
  42        7       38 1
  43        8       39 1
  44        9       40 1
  45       10       41 1
  46       16       42 1
  47       17       43 1
  48       18       44 1
  49       19       45 1
  50       20       46 1
  51       26       47 1
  52       28       48 1
  53       29       49 1
  54       30       50 1
  55       31       51 1
  56       32       52 1

@<TRIPOS>MOLECULE

  52   56
SMALL
USER_CHARGES
@<TRIPOS>ATOM
   1 C1           0.1224     0.1224     1.8776 C.3          1    LIG   0.0000
   2 C2           1.0000     1.0000     1.0000 C.3          1    LIG   0.0000
   3 S3          -0.0450     2.0450    -0.0450 S.3          1    LIG   0.0000
   4 C4          -0.0234     3.5680     0.7985 C.2          1    LIG   0.0000
   5 N5          -1.1965     4.1251     1.0238 N.2          1    LIG   0.0000
   6 C6          -1.3064     5.3253     1.6766 C.ar         1    LIG   0.0000
   7 C7          -2.5492     5.9069     1.9053 C.ar         1    LIG   0.0000
   8 C8          -2.6543     7.1266     2.5662 C.ar         1    LIG   0.0000
   9 C9          -1.5091     7.7795     3.0075 C.ar         1    LIG   0.0000
  10 C10         -0.2617     7.2066     2.7838 C.ar         1    LIG   0.0000
  11 C11         -0.1670     5.9862     2.1230 C.ar         1    LIG   0.0000
  12 C12          1.0937     5.3861     1.8886 C.2          1    LIG   0.0000
  13 N13          2.2376     5.8165     2.2290 N.2          1    LIG   0.0000
  14 C14          3.2817     4.8836     1.7873 C.3          1    LIG   0.0000
  15 C15          4.1362     5.6004     0.7541 C.ar         1    LIG   0.0000
  16 C16          3.9250     5.3605    -0.5996 C.ar         1    LIG   0.0000
  17 C17          4.7117     6.0200    -1.5380 C.ar         1    LIG   0.0000
  18 C18          5.6971     6.9089    -1.1192 C.ar         1    LIG   0.0000
  19 C19          5.9012     7.1430     0.2368 C.ar         1    LIG   0.0000
  20 C20          5.1191     6.4869     1.1820 C.ar         1    LIG   0.0000
  21 C21          2.4638     3.8137     1.0968 C.2          1    LIG   0.0000
  22 O22          2.9347     2.8265     0.5603 O.2          1    LIG   0.0000
  23 N23          1.1276     4.1976     1.2246 N.pl3        1    LIG   0.0000
  24 C24          1.8776     0.1224     0.1224 C.2          1    LIG   0.0000
  25 O25          1.7997    -1.0725     0.2003 O.2          1    LIG   0.0000
  26 N26          2.7574     0.6957    -0.7574 N.am         1    LIG   0.0000
  27 C27          3.5659    -0.1128    -1.5659 C.ar         1    LIG   0.0000
  28 C28          4.8907     0.2459    -1.7919 C.ar         1    LIG   0.0000
  29 C29          5.6863    -0.5627    -2.5968 C.ar         1    LIG   0.0000
  30 C30          5.1554    -1.7163    -3.1659 C.ar         1    LIG   0.0000
  31 C31          3.8295    -2.0674    -2.9343 C.ar         1    LIG   0.0000
  32 C32          3.0266    -1.2639    -2.1309 C.ar         1    LIG   0.0000
  33 H            1.5774     1.5774     1.5774 H            1    LIG   0.0000
  34 H            3.8212     4.5231     2.5482 H            1    LIG   0.0000
  35 H            0.6998    -0.4549     2.4549 H            1    LIG   0.0000
  36 H           -0.4549     0.6998     2.4549 H            1    LIG   0.0000
  37 H           -0.4549    -0.4549     1.3002 H            1    LIG   0.0000
  38 H           -3.3771     5.4427     1.5907 H            1    LIG   0.0000
  39 H           -3.5540     7.5338     2.7238 H            1    LIG   0.0000
  40 H           -1.5817     8.6561     3.4832 H            1    LIG   0.0000
  41 H            0.5661     7.6716     3.0975 H            1    LIG   0.0000
  42 H            3.2153     4.7208    -0.8949 H            1    LIG   0.0000
  43 H            4.5693     5.8554    -2.5140 H            1    LIG   0.0000
  44 H            6.2612     7.3816    -1.7962 H            1    LIG   0.0000
  45 H            6.6104     7.7831     0.5322 H            1    LIG   0.0000
  46 H            5.2619     6.6508     2.1581 H            1    LIG   0.0000
  47 H            2.8223     1.6915    -0.8223 H            1    LIG   0.0000
  48 H            5.2670     1.0759    -1.3802 H            1    LIG   0.0000
  49 H            6.6401    -0.3149    -2.7667 H            1    LIG   0.0000
  50 H            5.7298    -2.2956    -3.7442 H            1    LIG   0.0000
  51 H            3.4532    -2.8977    -3.3454 H            1    LIG   0.0000
  52 H            2.0726    -1.5110    -1.9615 H            1    LIG   0.0000
@<TRIPOS>BOND
   1        1        2 1
   2        2        3 1
   3        3        4 1
   4        4        5 2
   5        5        6 1
   6        6        7 ar
   7        7        8 ar
   8        8        9 ar
   9        9       10 ar
  10       10       11 ar
  11       11        6 ar
  12       11       12 1
  13       12       13 2
  14       13       14 1
  15       14       15 1
  16       15       16 ar
  17       16       17 ar
  18       17       18 ar
  19       18       19 ar
  20       19       20 ar
  21       20       15 ar
  22       14       21 1
  23       21       22 2
  24       21       23 1
  25       23        4 1
  26       23       12 1
  27        2       24 1
  28       24       25 2
  29       24       26 am
  30       26       27 1
  31       27       28 ar
  32       28       29 ar
  33       29       30 ar
  34       30       31 ar
  35       31       32 ar
  36       32       27 ar
  37        2       33 1
  38       14       34 1
  39        1       35 1
  40        1       36 1
  41        1       37 1
  42        7       38 1
  43        8       39 1
  44        9       40 1
  45       10       41 1
  46       16       42 1
  47       17       43 1
  48       18       44 1
  49       19       45 1
  50       20       46 1
  51       26       47 1
  52       28       48 1
  53       29       49 1
  54       30       50 1
  55       31       51 1
  56       32       52 1

@<TRIPOS>MOLECULE

  52   56
SMALL
USER_CHARGES
@<TRIPOS>ATOM
   1 C1           0.1224     0.1224     1.8776 C.3          1    LIG   0.0000
   2 C2           1.0000     1.0000     1.0000 C.3          1    LIG   0.0000
   3 S3          -0.0450     2.0450    -0.0450 S.3          1    LIG   0.0000
   4 C4           1.1020     3.1561    -0.7388 C.2          1    LIG   0.0000
   5 N5           2.2491     3.2815    -0.1018 N.2          1    LIG   0.0000
   6 C6           3.2294     4.1278    -0.5507 C.ar         1    LIG   0.0000
   7 C7           4.4347     4.2562     0.1317 C.ar         1    LIG   0.0000
   8 C8           5.4250     5.1188    -0.3273 C.ar         1    LIG   0.0000
   9 C9           5.2168     5.8656    -1.4813 C.ar         1    LIG   0.0000
  10 C10          4.0151     5.7447    -2.1708 C.ar         1    LIG   0.0000
  11 C11          3.0315     4.8787    -1.7046 C.ar         1    LIG   0.0000
  12 C12          1.8030     4.7401    -2.3945 C.2          1    LIG   0.0000
  13 N13          1.4399     5.3176    -3.4642 N.2          1    LIG   0.0000
  14 C14          0.0862     4.8885    -3.8370 C.3          1    LIG   0.0000
  15 C15         -0.8256     6.1016    -3.7459 C.ar         1    LIG   0.0000
  16 C16         -1.8061     6.2996    -4.7125 C.ar         1    LIG   0.0000
  17 C17         -2.6356     7.4124    -4.6218 C.ar         1    LIG   0.0000
  18 C18         -2.4801     8.3131    -3.5725 C.ar         1    LIG   0.0000
  19 C19         -1.4970     8.1070    -2.6101 C.ar         1    LIG   0.0000
  20 C20         -0.6627     6.9968    -2.6937 C.ar         1    LIG   0.0000
  21 C21         -0.2510     3.9306    -2.7149 C.2          1    LIG   0.0000
  22 O22         -1.3081     3.3336    -2.6140 O.2          1    LIG   0.0000
  23 N23          0.8707     3.8881    -1.8848 N.pl3        1    LIG   0.0000
  24 C24          1.8776     0.1224     0.1224 C.2          1    LIG   0.0000
  25 O25          1.7997    -1.0725     0.2003 O.2          1    LIG   0.0000
  26 N26          2.7574     0.6957    -0.7574 N.am         1    LIG   0.0000
  27 C27          3.5659    -0.1128    -1.5659 C.ar         1    LIG   0.0000
  28 C28          4.8907     0.2459    -1.7919 C.ar         1    LIG   0.0000
  29 C29          5.6863    -0.5627    -2.5968 C.ar         1    LIG   0.0000
  30 C30          5.1554    -1.7163    -3.1659 C.ar         1    LIG   0.0000
  31 C31          3.8295    -2.0674    -2.9343 C.ar         1    LIG   0.0000
  32 C32          3.0266    -1.2639    -2.1309 C.ar         1    LIG   0.0000
  33 H            1.5774     1.5774     1.5774 H            1    LIG   0.0000
  34 H            0.0559     4.4522    -4.7363 H            1    LIG   0.0000
  35 H            0.6998    -0.4549     2.4549 H            1    LIG   0.0000
  36 H           -0.4549     0.6998     2.4549 H            1    LIG   0.0000
  37 H           -0.4549    -0.4549     1.3002 H            1    LIG   0.0000
  38 H            4.5914     3.7219     0.9623 H            1    LIG   0.0000
  39 H            6.2869     5.2018     0.1729 H            1    LIG   0.0000
  40 H            5.9270     6.4861    -1.8137 H            1    LIG   0.0000
  41 H            3.8583     6.2798    -3.0009 H            1    LIG   0.0000
  42 H           -1.9135     5.6490    -5.4643 H            1    LIG   0.0000
  43 H           -3.3439     7.5653    -5.3110 H            1    LIG   0.0000
  44 H           -3.0779     9.1122    -3.5100 H            1    LIG   0.0000
  45 H           -1.3899     8.7572    -1.8579 H            1    LIG   0.0000
  46 H            0.0461     6.8441    -2.0051 H            1    LIG   0.0000
  47 H            2.8223     1.6915    -0.8223 H            1    LIG   0.0000
  48 H            5.2670     1.0759    -1.3802 H            1    LIG   0.0000
  49 H            6.6401    -0.3149    -2.7667 H            1    LIG   0.0000
  50 H            5.7298    -2.2956    -3.7442 H            1    LIG   0.0000
  51 H            3.4532    -2.8977    -3.3454 H            1    LIG   0.0000
  52 H            2.0726    -1.5110    -1.9615 H            1    LIG   0.0000
@<TRIPOS>BOND
   1        1        2 1
   2        2        3 1
   3        3        4 1
   4        4        5 2
   5        5        6 1
   6        6        7 ar
   7        7        8 ar
   8        8        9 ar
   9        9       10 ar
  10       10       11 ar
  11       11        6 ar
  12       11       12 1
  13       12       13 2
  14       13       14 1
  15       14       15 1
  16       15       16 ar
  17       16       17 ar
  18       17       18 ar
  19       18       19 ar
  20       19       20 ar
  21       20       15 ar
  22       14       21 1
  23       21       22 2
  24       21       23 1
  25       23        4 1
  26       23       12 1
  27        2       24 1
  28       24       25 2
  29       24       26 am
  30       26       27 1
  31       27       28 ar
  32       28       29 ar
  33       29       30 ar
  34       30       31 ar
  35       31       32 ar
  36       32       27 ar
  37        2       33 1
  38       14       34 1
  39        1       35 1
  40        1       36 1
  41        1       37 1
  42        7       38 1
  43        8       39 1
  44        9       40 1
  45       10       41 1
  46       16       42 1
  47       17       43 1
  48       18       44 1
  49       19       45 1
  50       20       46 1
  51       26       47 1
  52       28       48 1
  53       29       49 1
  54       30       50 1
  55       31       51 1
  56       32       52 1

@<TRIPOS>MOLECULE

  52   56
SMALL
USER_CHARGES
@<TRIPOS>ATOM
   1 C1           0.1224     0.1224     1.8776 C.3          1    LIG   0.0000
   2 C2           1.0000     1.0000     1.0000 C.3          1    LIG   0.0000
   3 S3          -0.0450     2.0450    -0.0450 S.3          1    LIG   0.0000
   4 C4           1.1020     3.1561    -0.7388 C.2          1    LIG   0.0000
   5 N5           1.6531     2.7877    -1.8781 N.2          1    LIG   0.0000
   6 C6           2.5721     3.5777    -2.5182 C.ar         1    LIG   0.0000
   7 C7           3.1511     3.1774    -3.7180 C.ar         1    LIG   0.0000
   8 C8           4.0854     3.9825    -4.3619 C.ar         1    LIG   0.0000
   9 C9           4.4507     5.2039    -3.8074 C.ar         1    LIG   0.0000
  10 C10          3.8779     5.6133    -2.6082 C.ar         1    LIG   0.0000
  11 C11          2.9438     4.8018    -1.9725 C.ar         1    LIG   0.0000
  12 C12          2.3478     5.2030    -0.7526 C.2          1    LIG   0.0000
  13 N13          2.5379     6.2794    -0.1086 N.2          1    LIG   0.0000
  14 C14          1.7175     6.2928     1.1089 C.3          1    LIG   0.0000
  15 C15          2.6595     6.2804     2.3022 C.ar         1    LIG   0.0000
  16 C16          2.3705     7.0631     3.4152 C.ar         1    LIG   0.0000
  17 C17          3.2381     7.0462     4.5022 C.ar         1    LIG   0.0000
  18 C18          4.3804     6.2522     4.4691 C.ar         1    LIG   0.0000
  19 C19          4.6614     5.4724     3.3520 C.ar         1    LIG   0.0000
  20 C20          3.7992     5.4840     2.2601 C.ar         1    LIG   0.0000
  21 C21          1.0149     4.9554     1.0191 C.2          1    LIG   0.0000
  22 O22          0.2254     4.5359     1.8466 O.2          1    LIG   0.0000
  23 N23          1.4501     4.3624    -0.1675 N.pl3        1    LIG   0.0000
  24 C24          1.8776     0.1224     0.1224 C.2          1    LIG   0.0000
  25 O25          1.7997    -1.0725     0.2003 O.2          1    LIG   0.0000
  26 N26          2.7574     0.6957    -0.7574 N.am         1    LIG   0.0000
  27 C27          3.5659    -0.1128    -1.5659 C.ar         1    LIG   0.0000
  28 C28          4.8907     0.2459    -1.7919 C.ar         1    LIG   0.0000
  29 C29          5.6863    -0.5627    -2.5968 C.ar         1    LIG   0.0000
  30 C30          5.1554    -1.7163    -3.1659 C.ar         1    LIG   0.0000
  31 C31          3.8295    -2.0674    -2.9343 C.ar         1    LIG   0.0000
  32 C32          3.0266    -1.2639    -2.1309 C.ar         1    LIG   0.0000
  33 H            1.5774     1.5774     1.5774 H            1    LIG   0.0000
  34 H            1.0783     7.0615     1.1325 H            1    LIG   0.0000
  35 H            0.6998    -0.4549     2.4549 H            1    LIG   0.0000
  36 H           -0.4549     0.6998     2.4549 H            1    LIG   0.0000
  37 H           -0.4549    -0.4549     1.3002 H            1    LIG   0.0000
  38 H            2.8928     2.3002    -4.1226 H            1    LIG   0.0000
  39 H            4.4942     3.6826    -5.2238 H            1    LIG   0.0000
  40 H            5.1217     5.7847    -4.2683 H            1    LIG   0.0000
  41 H            4.1371     6.4901    -2.2032 H            1    LIG   0.0000
  42 H            1.5480     7.6316     3.4336 H            1    LIG   0.0000
  43 H            3.0409     7.6049     5.3078 H            1    LIG   0.0000
  44 H            5.0022     6.2421     5.2522 H            1    LIG   0.0000
  45 H            5.4835     4.9033     3.3336 H            1    LIG   0.0000
  46 H            3.9966     4.9259     1.4541 H            1    LIG   0.0000
  47 H            2.8223     1.6915    -0.8223 H            1    LIG   0.0000
  48 H            5.2670     1.0759    -1.3802 H            1    LIG   0.0000
  49 H            6.6401    -0.3149    -2.7667 H            1    LIG   0.0000
  50 H            5.7298    -2.2956    -3.7442 H            1    LIG   0.0000
  51 H            3.4532    -2.8977    -3.3454 H            1    LIG   0.0000
  52 H            2.0726    -1.5110    -1.9615 H            1    LIG   0.0000
@<TRIPOS>BOND
   1        1        2 1
   2        2        3 1
   3        3        4 1
   4        4        5 2
   5        5        6 1
   6        6        7 ar
   7        7        8 ar
   8        8        9 ar
   9        9       10 ar
  10       10       11 ar
  11       11        6 ar
  12       11       12 1
  13       12       13 2
  14       13       14 1
  15       14       15 1
  16       15       16 ar
  17       16       17 ar
  18       17       18 ar
  19       18       19 ar
  20       19       20 ar
  21       20       15 ar
  22       14       21 1
  23       21       22 2
  24       21       23 1
  25       23        4 1
  26       23       12 1
  27        2       24 1
  28       24       25 2
  29       24       26 am
  30       26       27 1
  31       27       28 ar
  32       28       29 ar
  33       29       30 ar
  34       30       31 ar
  35       31       32 ar
  36       32       27 ar
  37        2       33 1
  38       14       34 1
  39        1       35 1
  40        1       36 1
  41        1       37 1
  42        7       38 1
  43        8       39 1
  44        9       40 1
  45       10       41 1
  46       16       42 1
  47       17       43 1
  48       18       44 1
  49       19       45 1
  50       20       46 1
  51       26       47 1
  52       28       48 1
  53       29       49 1
  54       30       50 1
  55       31       51 1
  56       32       52 1

@<TRIPOS>MOLECULE

  52   56
SMALL
USER_CHARGES
@<TRIPOS>ATOM
   1 C1           0.1224     0.1224     1.8776 C.3          1    LIG   0.0000
   2 C2           1.0000     1.0000     1.0000 C.3          1    LIG   0.0000
   3 S3          -0.0450     2.0450    -0.0450 S.3          1    LIG   0.0000
   4 C4           1.1020     3.1561    -0.7388 C.2          1    LIG   0.0000
   5 N5           1.3177     4.2672    -0.0633 N.2          1    LIG   0.0000
   6 C6           2.1967     5.2188    -0.5107 C.ar         1    LIG   0.0000
   7 C7           2.4136     6.3901     0.2076 C.ar         1    LIG   0.0000
   8 C8           3.3052     7.3537    -0.2529 C.ar         1    LIG   0.0000
   9 C9           3.9928     7.1523    -1.4443 C.ar         1    LIG   0.0000
  10 C10          3.7830     5.9847    -2.1701 C.ar         1    LIG   0.0000
  11 C11          2.8903     5.0267    -1.7009 C.ar         1    LIG   0.0000
  12 C12          2.6658     3.8307    -2.4244 C.2          1    LIG   0.0000
  13 N13          3.2076     3.4633    -3.5112 N.2          1    LIG   0.0000
  14 C14          2.6880     2.1519    -3.9182 C.3          1    LIG   0.0000
  15 C15          1.9267     2.3393    -5.2207 C.ar         1    LIG   0.0000
  16 C16          2.0386     1.3850    -6.2265 C.ar         1    LIG   0.0000
  17 C17          1.3392     1.5648    -7.4153 C.ar         1    LIG   0.0000
  18 C18          0.5381     2.6894    -7.5886 C.ar         1    LIG   0.0000
  19 C19          0.4319     3.6385    -6.5772 C.ar         1    LIG   0.0000
  20 C20          1.1287     3.4667    -5.3853 C.ar         1    LIG   0.0000
  21 C21          1.7034     1.8549    -2.8078 C.2          1    LIG   0.0000
  22 O22          1.0205     0.8481    -2.7446 O.2          1    LIG   0.0000
  23 N23          1.7704     2.9343    -1.9249 N.pl3        1    LIG   0.0000
  24 C24          1.8776     0.1224     0.1224 C.2          1    LIG   0.0000
  25 O25          1.7997    -1.0725     0.2003 O.2          1    LIG   0.0000
  26 N26          2.7574     0.6957    -0.7574 N.am         1    LIG   0.0000
  27 C27          3.5659    -0.1128    -1.5659 C.ar         1    LIG   0.0000
  28 C28          4.8907     0.2459    -1.7919 C.ar         1    LIG   0.0000
  29 C29          5.6863    -0.5627    -2.5968 C.ar         1    LIG   0.0000
  30 C30          5.1554    -1.7163    -3.1659 C.ar         1    LIG   0.0000
  31 C31          3.8295    -2.0674    -2.9343 C.ar         1    LIG   0.0000
  32 C32          3.0266    -1.2639    -2.1309 C.ar         1    LIG   0.0000
  33 H            1.5774     1.5774     1.5774 H            1    LIG   0.0000
  34 H            3.4063     1.4598    -3.9896 H            1    LIG   0.0000
  35 H            0.6998    -0.4549     2.4549 H            1    LIG   0.0000
  36 H           -0.4549     0.6998     2.4549 H            1    LIG   0.0000
  37 H           -0.4549    -0.4549     1.3002 H            1    LIG   0.0000
  38 H            1.9226     6.5414     1.0655 H            1    LIG   0.0000
  39 H            3.4516     8.1914     0.2732 H            1    LIG   0.0000
  40 H            4.6345     7.8430    -1.7775 H            1    LIG   0.0000
  41 H            4.2734     5.8341    -3.0285 H            1    LIG   0.0000
  42 H            2.6155     0.5787    -6.0965 H            1    LIG   0.0000
  43 H            1.4120     0.8856    -8.1456 H            1    LIG   0.0000
  44 H            0.0364     2.8159    -8.4444 H            1    LIG   0.0000
  45 H           -0.1455     4.4446    -6.7069 H            1    LIG   0.0000
  46 H            1.0566     4.1461    -4.6551 H            1    LIG   0.0000
  47 H            2.8223     1.6915    -0.8223 H            1    LIG   0.0000
  48 H            5.2670     1.0759    -1.3802 H            1    LIG   0.0000
  49 H            6.6401    -0.3149    -2.7667 H            1    LIG   0.0000
  50 H            5.7298    -2.2956    -3.7442 H            1    LIG   0.0000
  51 H            3.4532    -2.8977    -3.3454 H            1    LIG   0.0000
  52 H            2.0726    -1.5110    -1.9615 H            1    LIG   0.0000
@<TRIPOS>BOND
   1        1        2 1
   2        2        3 1
   3        3        4 1
   4        4        5 2
   5        5        6 1
   6        6        7 ar
   7        7        8 ar
   8        8        9 ar
   9        9       10 ar
  10       10       11 ar
  11       11        6 ar
  12       11       12 1
  13       12       13 2
  14       13       14 1
  15       14       15 1
  16       15       16 ar
  17       16       17 ar
  18       17       18 ar
  19       18       19 ar
  20       19       20 ar
  21       20       15 ar
  22       14       21 1
  23       21       22 2
  24       21       23 1
  25       23        4 1
  26       23       12 1
  27        2       24 1
  28       24       25 2
  29       24       26 am
  30       26       27 1
  31       27       28 ar
  32       28       29 ar
  33       29       30 ar
  34       30       31 ar
  35       31       32 ar
  36       32       27 ar
  37        2       33 1
  38       14       34 1
  39        1       35 1
  40        1       36 1
  41        1       37 1
  42        7       38 1
  43        8       39 1
  44        9       40 1
  45       10       41 1
  46       16       42 1
  47       17       43 1
  48       18       44 1
  49       19       45 1
  50       20       46 1
  51       26       47 1
  52       28       48 1
  53       29       49 1
  54       30       50 1
  55       31       51 1
  56       32       52 1

@<TRIPOS>MOLECULE

  52   56
SMALL
USER_CHARGES
@<TRIPOS>ATOM
   1 C1           0.1224     0.1224     1.8776 C.3          1    LIG   0.0000
   2 C2           1.0000     1.0000     1.0000 C.3          1    LIG   0.0000
   3 S3          -0.0450     2.0450    -0.0450 S.3          1    LIG   0.0000
   4 C4          -1.1561     0.8980    -0.7388 C.2          1    LIG   0.0000
   5 N5          -1.7528     0.0814     0.1065 N.2          1    LIG   0.0000
   6 C6          -2.6459    -0.8660    -0.3217 C.ar         1    LIG   0.0000
   7 C7          -3.2667    -1.7260     0.5783 C.ar         1    LIG   0.0000
   8 C8          -4.1706    -2.6874     0.1375 C.ar         1    LIG   0.0000
   9 C9          -4.4636    -2.7974    -1.2170 C.ar         1    LIG   0.0000
  10 C10         -3.8482    -1.9425    -2.1251 C.ar         1    LIG   0.0000
  11 C11         -2.9468    -0.9837    -1.6745 C.ar         1    LIG   0.0000
  12 C12         -2.3126    -0.1028    -2.5835 C.2          1    LIG   0.0000
  13 N13         -2.4641    -0.0384    -3.8414 N.2          1    LIG   0.0000
  14 C14         -1.6136     1.0197    -4.4005 C.3          1    LIG   0.0000
  15 C15         -0.5829     0.3579    -5.3011 C.ar         1    LIG   0.0000
  16 C16         -0.2375     0.9573    -6.5078 C.ar         1    LIG   0.0000
  17 C17          0.7059     0.3446    -7.3260 C.ar         1    LIG   0.0000
  18 C18          1.2934    -0.8545    -6.9343 C.ar         1    LIG   0.0000
  19 C19          0.9421    -1.4468    -5.7256 C.ar         1    LIG   0.0000
  20 C20         -0.0011    -0.8409    -4.9017 C.ar         1    LIG   0.0000
  21 C21         -0.9230     1.5443    -3.1602 C.2          1    LIG   0.0000
  22 O22         -0.1020     2.4443    -3.1583 O.2          1    LIG   0.0000
  23 N23         -1.4285     0.8069    -2.0879 N.pl3        1    LIG   0.0000
  24 C24          1.8776     0.1224     0.1224 C.2          1    LIG   0.0000
  25 O25          1.7997    -1.0725     0.2003 O.2          1    LIG   0.0000
  26 N26          2.7574     0.6957    -0.7574 N.am         1    LIG   0.0000
  27 C27          3.5659    -0.1128    -1.5659 C.ar         1    LIG   0.0000
  28 C28          4.8907     0.2459    -1.7919 C.ar         1    LIG   0.0000
  29 C29          5.6863    -0.5627    -2.5968 C.ar         1    LIG   0.0000
  30 C30          5.1554    -1.7163    -3.1659 C.ar         1    LIG   0.0000
  31 C31          3.8295    -2.0674    -2.9343 C.ar         1    LIG   0.0000
  32 C32          3.0266    -1.2639    -2.1309 C.ar         1    LIG   0.0000
  33 H            1.5774     1.5774     1.5774 H            1    LIG   0.0000
  34 H           -2.1404     1.7254    -4.8741 H            1    LIG   0.0000
  35 H            0.6998    -0.4549     2.4549 H            1    LIG   0.0000
  36 H           -0.4549     0.6998     2.4549 H            1    LIG   0.0000
  37 H           -0.4549    -0.4549     1.3002 H            1    LIG   0.0000
  38 H           -3.0608    -1.6523     1.5541 H            1    LIG   0.0000
  39 H           -4.6096    -3.2995     0.7952 H            1    LIG   0.0000
  40 H           -5.1131    -3.4872    -1.5366 H            1    LIG   0.0000
  41 H           -4.0535    -2.0170    -3.1009 H            1    LIG   0.0000
  42 H           -0.6627     1.8192    -6.7841 H            1    LIG   0.0000
  43 H            0.9620     0.7660    -8.1959 H            1    LIG   0.0000
  44 H            1.9713    -1.2926    -7.5246 H            1    LIG   0.0000
  45 H            1.3677    -2.3083    -5.4489 H            1    LIG   0.0000
  46 H           -0.2580    -1.2625    -4.0321 H            1    LIG   0.0000
  47 H            2.8223     1.6915    -0.8223 H            1    LIG   0.0000
  48 H            5.2670     1.0759    -1.3802 H            1    LIG   0.0000
  49 H            6.6401    -0.3149    -2.7667 H            1    LIG   0.0000
  50 H            5.7298    -2.2956    -3.7442 H            1    LIG   0.0000
  51 H            3.4532    -2.8977    -3.3454 H            1    LIG   0.0000
  52 H            2.0726    -1.5110    -1.9615 H            1    LIG   0.0000
@<TRIPOS>BOND
   1        1        2 1
   2        2        3 1
   3        3        4 1
   4        4        5 2
   5        5        6 1
   6        6        7 ar
   7        7        8 ar
   8        8        9 ar
   9        9       10 ar
  10       10       11 ar
  11       11        6 ar
  12       11       12 1
  13       12       13 2
  14       13       14 1
  15       14       15 1
  16       15       16 ar
  17       16       17 ar
  18       17       18 ar
  19       18       19 ar
  20       19       20 ar
  21       20       15 ar
  22       14       21 1
  23       21       22 2
  24       21       23 1
  25       23        4 1
  26       23       12 1
  27        2       24 1
  28       24       25 2
  29       24       26 am
  30       26       27 1
  31       27       28 ar
  32       28       29 ar
  33       29       30 ar
  34       30       31 ar
  35       31       32 ar
  36       32       27 ar
  37        2       33 1
  38       14       34 1
  39        1       35 1
  40        1       36 1
  41        1       37 1
  42        7       38 1
  43        8       39 1
  44        9       40 1
  45       10       41 1
  46       16       42 1
  47       17       43 1
  48       18       44 1
  49       19       45 1
  50       20       46 1
  51       26       47 1
  52       28       48 1
  53       29       49 1
  54       30       50 1
  55       31       51 1
  56       32       52 1

@<TRIPOS>MOLECULE

  52   56
SMALL
USER_CHARGES
@<TRIPOS>ATOM
   1 C1           0.1224     0.1224     1.8776 C.3          1    LIG   0.0000
   2 C2           1.0000     1.0000     1.0000 C.3          1    LIG   0.0000
   3 S3          -0.0450     2.0450    -0.0450 S.3          1    LIG   0.0000
   4 C4          -1.1561     0.8980    -0.7388 C.2          1    LIG   0.0000
   5 N5          -0.7877     0.3469    -1.8781 N.2          1    LIG   0.0000
   6 C6          -1.5801    -0.5682    -2.5209 C.ar         1    LIG   0.0000
   7 C7          -1.1840    -1.1404    -3.7253 C.ar         1    LIG   0.0000
   8 C8          -1.9938    -2.0669    -4.3745 C.ar         1    LIG   0.0000
   9 C9          -3.2154    -2.4318    -3.8203 C.ar         1    LIG   0.0000
  10 C10         -3.6208    -1.8655    -2.6166 C.ar         1    LIG   0.0000
  11 C11         -2.8036    -0.9409    -1.9745 C.ar         1    LIG   0.0000
  12 C12         -3.1981    -0.3558    -0.7471 C.2          1    LIG   0.0000
  13 N13         -4.2573    -0.5743    -0.0839 N.2          1    LIG   0.0000
  14 C14         -4.2704     0.2456     1.1340 C.3          1    LIG   0.0000
  15 C15         -5.4263     1.2264     1.0195 C.ar         1    LIG   0.0000
  16 C16         -6.2040     1.5072     2.1381 C.ar         1    LIG   0.0000
  17 C17         -7.2600     2.4052     2.0243 C.ar         1    LIG   0.0000
  18 C18         -7.5290     3.0123     0.8013 C.ar         1    LIG   0.0000
  19 C19         -6.7459     2.7258    -0.3121 C.ar         1    LIG   0.0000
  20 C20         -5.6881     1.8282    -0.2070 C.ar         1    LIG   0.0000
  21 C21         -2.9655     1.0016     1.0078 C.2          1    LIG   0.0000
  22 O22         -2.5646     1.8220     1.8144 O.2          1    LIG   0.0000
  23 N23         -2.3648     0.5539    -0.1702 N.pl3        1    LIG   0.0000
  24 C24          1.8776     0.1224     0.1224 C.2          1    LIG   0.0000
  25 O25          1.7997    -1.0725     0.2003 O.2          1    LIG   0.0000
  26 N26          2.7574     0.6957    -0.7574 N.am         1    LIG   0.0000
  27 C27          3.5659    -0.1128    -1.5659 C.ar         1    LIG   0.0000
  28 C28          4.8907     0.2459    -1.7919 C.ar         1    LIG   0.0000
  29 C29          5.6863    -0.5627    -2.5968 C.ar         1    LIG   0.0000
  30 C30          5.1554    -1.7163    -3.1659 C.ar         1    LIG   0.0000
  31 C31          3.8295    -2.0674    -2.9343 C.ar         1    LIG   0.0000
  32 C32          3.0266    -1.2639    -2.1309 C.ar         1    LIG   0.0000
  33 H            1.5774     1.5774     1.5774 H            1    LIG   0.0000
  34 H           -4.3158    -0.3055     1.9672 H            1    LIG   0.0000
  35 H            0.6998    -0.4549     2.4549 H            1    LIG   0.0000
  36 H           -0.4549     0.6998     2.4549 H            1    LIG   0.0000
  37 H           -0.4549    -0.4549     1.3002 H            1    LIG   0.0000
  38 H           -0.3064    -0.8826    -4.1295 H            1    LIG   0.0000
  39 H           -1.6970    -2.4704    -5.2400 H            1    LIG   0.0000
  40 H           -3.7992    -3.0978    -4.2845 H            1    LIG   0.0000
  41 H           -4.4989    -2.1227    -2.2130 H            1    LIG   0.0000
  42 H           -6.0060     1.0681     3.0145 H            1    LIG   0.0000
  43 H           -7.8261     2.6147     2.8215 H            1    LIG   0.0000
  44 H           -8.2888     3.6576     0.7225 H            1    LIG   0.0000
  45 H           -6.9433     3.1653    -1.1884 H            1    LIG   0.0000
  46 H           -5.1223     1.6180    -1.0043 H            1    LIG   0.0000
  47 H            2.8223     1.6915    -0.8223 H            1    LIG   0.0000
  48 H            5.2670     1.0759    -1.3802 H            1    LIG   0.0000
  49 H            6.6401    -0.3149    -2.7667 H            1    LIG   0.0000
  50 H            5.7298    -2.2956    -3.7442 H            1    LIG   0.0000
  51 H            3.4532    -2.8977    -3.3454 H            1    LIG   0.0000
  52 H            2.0726    -1.5110    -1.9615 H            1    LIG   0.0000
@<TRIPOS>BOND
   1        1        2 1
   2        2        3 1
   3        3        4 1
   4        4        5 2
   5        5        6 1
   6        6        7 ar
   7        7        8 ar
   8        8        9 ar
   9        9       10 ar
  10       10       11 ar
  11       11        6 ar
  12       11       12 1
  13       12       13 2
  14       13       14 1
  15       14       15 1
  16       15       16 ar
  17       16       17 ar
  18       17       18 ar
  19       18       19 ar
  20       19       20 ar
  21       20       15 ar
  22       14       21 1
  23       21       22 2
  24       21       23 1
  25       23        4 1
  26       23       12 1
  27        2       24 1
  28       24       25 2
  29       24       26 am
  30       26       27 1
  31       27       28 ar
  32       28       29 ar
  33       29       30 ar
  34       30       31 ar
  35       31       32 ar
  36       32       27 ar
  37        2       33 1
  38       14       34 1
  39        1       35 1
  40        1       36 1
  41        1       37 1
  42        7       38 1
  43        8       39 1
  44        9       40 1
  45       10       41 1
  46       16       42 1
  47       17       43 1
  48       18       44 1
  49       19       45 1
  50       20       46 1
  51       26       47 1
  52       28       48 1
  53       29       49 1
  54       30       50 1
  55       31       51 1
  56       32       52 1

@<TRIPOS>MOLECULE

  52   56
SMALL
USER_CHARGES
@<TRIPOS>ATOM
   1 C1           0.1224     0.1224     1.8776 C.3          1    LIG   0.0000
   2 C2           1.0000     1.0000     1.0000 C.3          1    LIG   0.0000
   3 S3          -0.0450     2.0450    -0.0450 S.3          1    LIG   0.0000
   4 C4          -1.1561     0.8980    -0.7388 C.2          1    LIG   0.0000
   5 N5          -0.7755    -0.3639    -0.7225 N.2          1    LIG   0.0000
   6 C6          -1.5642    -1.3571    -1.2420 C.ar         1    LIG   0.0000
   7 C7          -1.1511    -2.6853    -1.2240 C.ar         1    LIG   0.0000
   8 C8          -1.9549    -3.6889    -1.7551 C.ar         1    LIG   0.0000
   9 C9          -3.1881    -3.3703    -2.3124 C.ar         1    LIG   0.0000
  10 C10         -3.6104    -2.0455    -2.3356 C.ar         1    LIG   0.0000
  11 C11         -2.8000    -1.0493    -1.8010 C.ar         1    LIG   0.0000
  12 C12         -3.2142     0.3045    -1.8130 C.2          1    LIG   0.0000
  13 N13         -4.3021     0.7833    -2.2565 N.2          1    LIG   0.0000
  14 C14         -4.3265     2.2398    -2.0731 C.3          1    LIG   0.0000
  15 C15         -4.3412     2.8800    -3.4519 C.ar         1    LIG   0.0000
  16 C16         -3.4109     2.4809    -4.4059 C.ar         1    LIG   0.0000
  17 C17         -3.4311     3.0724    -5.6646 C.ar         1    LIG   0.0000
  18 C18         -4.3750     4.0517    -5.9587 C.ar         1    LIG   0.0000
  19 C19         -5.3019     4.4444    -4.9986 C.ar         1    LIG   0.0000
  20 C20         -5.2882     3.8583    -3.7369 C.ar         1    LIG   0.0000
  21 C21         -2.9813     2.4891    -1.4260 C.2          1    LIG   0.0000
  22 O22         -2.5670     3.5877    -1.1009 O.2          1    LIG   0.0000
  23 N23         -2.3743     1.2395    -1.2885 N.pl3        1    LIG   0.0000
  24 C24          1.8776     0.1224     0.1224 C.2          1    LIG   0.0000
  25 O25          1.3755    -0.6482    -0.6482 O.2          1    LIG   0.0000
  26 N26          3.2418     0.2113     0.2113 N.am         1    LIG   0.0000
  27 C27          4.0353    -0.0540    -0.9115 C.ar         1    LIG   0.0000
  28 C28          5.4198     0.0384    -0.8132 C.ar         1    LIG   0.0000
  29 C29          6.2002    -0.2262    -1.9338 C.ar         1    LIG   0.0000
  30 C30          5.5951    -0.5791    -3.1362 C.ar         1    LIG   0.0000
  31 C31          4.2098    -0.6693    -3.2253 C.ar         1    LIG   0.0000
  32 C32          3.4218    -0.4057    -2.1094 C.ar         1    LIG   0.0000
  33 H            1.5774     1.5774     1.5774 H            1    LIG   0.0000
  34 H           -5.0893     2.5419    -1.5014 H            1    LIG   0.0000
  35 H            0.6998    -0.4549     2.4549 H            1    LIG   0.0000
  36 H           -0.4549     0.6998     2.4549 H            1    LIG   0.0000
  37 H           -0.4549    -0.4549     1.3002 H            1    LIG   0.0000
  38 H           -0.2653    -2.9216    -0.8244 H            1    LIG   0.0000
  39 H           -1.6457    -4.6396    -1.7359 H            1    LIG   0.0000
  40 H           -3.7681    -4.0898    -2.6945 H            1    LIG   0.0000
  41 H           -4.4957    -1.8093    -2.7361 H            1    LIG   0.0000
  42 H           -2.7349     1.7766    -4.1891 H            1    LIG   0.0000
  43 H           -2.7670     2.7939    -6.3584 H            1    LIG   0.0000
  44 H           -4.3871     4.4751    -6.8645 H            1    LIG   0.0000
  45 H           -5.9783     5.1483    -5.2154 H            1    LIG   0.0000
  46 H           -5.9516     4.1373    -3.0426 H            1    LIG   0.0000
  47 H            3.6709     0.4657     1.0780 H            1    LIG   0.0000
  48 H            5.8493     0.2922     0.0534 H            1    LIG   0.0000
  49 H            7.1965    -0.1627    -1.8753 H            1    LIG   0.0000
  50 H            6.1588    -0.7687    -3.9401 H            1    LIG   0.0000
  51 H            3.7802    -0.9238    -4.0917 H            1    LIG   0.0000
  52 H            2.4255    -0.4683    -2.1678 H            1    LIG   0.0000
@<TRIPOS>BOND
   1        1        2 1
   2        2        3 1
   3        3        4 1
   4        4        5 2
   5        5        6 1
   6        6        7 ar
   7        7        8 ar
   8        8        9 ar
   9        9       10 ar
  10       10       11 ar
  11       11        6 ar
  12       11       12 1
  13       12       13 2
  14       13       14 1
  15       14       15 1
  16       15       16 ar
  17       16       17 ar
  18       17       18 ar
  19       18       19 ar
  20       19       20 ar
  21       20       15 ar
  22       14       21 1
  23       21       22 2
  24       21       23 1
  25       23        4 1
  26       23       12 1
  27        2       24 1
  28       24       25 2
  29       24       26 am
  30       26       27 1
  31       27       28 ar
  32       28       29 ar
  33       29       30 ar
  34       30       31 ar
  35       31       32 ar
  36       32       27 ar
  37        2       33 1
  38       14       34 1
  39        1       35 1
  40        1       36 1
  41        1       37 1
  42        7       38 1
  43        8       39 1
  44        9       40 1
  45       10       41 1
  46       16       42 1
  47       17       43 1
  48       18       44 1
  49       19       45 1
  50       20       46 1
  51       26       47 1
  52       28       48 1
  53       29       49 1
  54       30       50 1
  55       31       51 1
  56       32       52 1

@<TRIPOS>MOLECULE

  52   56
SMALL
USER_CHARGES
@<TRIPOS>ATOM
   1 C1           0.1224     0.1224     1.8776 C.3          1    LIG   0.0000
   2 C2           1.0000     1.0000     1.0000 C.3          1    LIG   0.0000
   3 S3          -0.0450     2.0450    -0.0450 S.3          1    LIG   0.0000
   4 C4           0.9372     2.2643    -1.4658 C.2          1    LIG   0.0000
   5 N5           0.3500     2.0262    -2.6216 N.2          1    LIG   0.0000
   6 C6           1.0221     2.1620    -3.8084 C.ar         1    LIG   0.0000
   7 C7           0.3943     1.9037    -5.0225 C.ar         1    LIG   0.0000
   8 C8           1.0824     2.0409    -6.2239 C.ar         1    LIG   0.0000
   9 C9           2.4139     2.4408    -6.2210 C.ar         1    LIG   0.0000
  10 C10          3.0509     2.7013    -5.0125 C.ar         1    LIG   0.0000
  11 C11          2.3540     2.5625    -3.8167 C.ar         1    LIG   0.0000
  12 C12          2.9847     2.8259    -2.5768 C.2          1    LIG   0.0000
  13 N13          4.1753     3.2144    -2.3745 N.2          1    LIG   0.0000
  14 C14          4.4212     3.3655    -0.9350 C.3          1    LIG   0.0000
  15 C15          5.4717     2.3421    -0.5346 C.ar         1    LIG   0.0000
  16 C16          5.3448     1.6614     0.6718 C.ar         1    LIG   0.0000
  17 C17          6.3109     0.7273     1.0305 C.ar         1    LIG   0.0000
  18 C18          7.3894     0.4818     0.1862 C.ar         1    LIG   0.0000
  19 C19          7.5082     1.1669    -1.0186 C.ar         1    LIG   0.0000
  20 C20          6.5466     2.1033    -1.3847 C.ar         1    LIG   0.0000
  21 C21          3.0854     2.9574    -0.3521 C.2          1    LIG   0.0000
  22 O22          2.8359     2.9243     0.8399 O.2          1    LIG   0.0000
  23 N23          2.2583     2.6600    -1.4368 N.pl3        1    LIG   0.0000
  24 C24          1.8776     0.1224     0.1224 C.2          1    LIG   0.0000
  25 O25          1.3755    -0.6482    -0.6482 O.2          1    LIG   0.0000
  26 N26          3.2418     0.2113     0.2113 N.am         1    LIG   0.0000
  27 C27          4.0353    -0.0540    -0.9115 C.ar         1    LIG   0.0000
  28 C28          5.2228    -0.7631    -0.7631 C.ar         1    LIG   0.0000
  29 C29          6.0051    -1.0215    -1.8837 C.ar         1    LIG   0.0000
  30 C30          5.5974    -0.5724    -3.1362 C.ar         1    LIG   0.0000
  31 C31          4.4082     0.1358    -3.2753 C.ar         1    LIG   0.0000
  32 C32          3.6201     0.3991    -2.1594 C.ar         1    LIG   0.0000
  33 H            1.5774     1.5774     1.5774 H            1    LIG   0.0000
  34 H            4.6798     4.2987    -0.6856 H            1    LIG   0.0000
  35 H            0.6998    -0.4549     2.4549 H            1    LIG   0.0000
  36 H           -0.4549     0.6998     2.4549 H            1    LIG   0.0000
  37 H           -0.4549    -0.4549     1.3002 H            1    LIG   0.0000
  38 H           -0.5633     1.6159    -5.0320 H            1    LIG   0.0000
  39 H            0.6192     1.8518    -7.0897 H            1    LIG   0.0000
  40 H            2.9108     2.5406    -7.0831 H            1    LIG   0.0000
  41 H            4.0088     2.9882    -5.0033 H            1    LIG   0.0000
  42 H            4.5675     1.8417     1.2746 H            1    LIG   0.0000
  43 H            6.2304     0.2320     1.8955 H            1    LIG   0.0000
  44 H            8.0824    -0.1904     0.4468 H            1    LIG   0.0000
  45 H            8.2851     0.9862    -1.6218 H            1    LIG   0.0000
  46 H            6.6273     2.5993    -2.2493 H            1    LIG   0.0000
  47 H            3.6709     0.4657     1.0780 H            1    LIG   0.0000
  48 H            5.5108    -1.0836     0.1393 H            1    LIG   0.0000
  49 H            6.8609    -1.5301    -1.7894 H            1    LIG   0.0000
  50 H            6.1620    -0.7597    -3.9400 H            1    LIG   0.0000
  51 H            4.1197     0.4557    -4.1777 H            1    LIG   0.0000
  52 H            2.7646     0.9083    -2.2534 H            1    LIG   0.0000
@<TRIPOS>BOND
   1        1        2 1
   2        2        3 1
   3        3        4 1
   4        4        5 2
   5        5        6 1
   6        6        7 ar
   7        7        8 ar
   8        8        9 ar
   9        9       10 ar
  10       10       11 ar
  11       11        6 ar
  12       11       12 1
  13       12       13 2
  14       13       14 1
  15       14       15 1
  16       15       16 ar
  17       16       17 ar
  18       17       18 ar
  19       18       19 ar
  20       19       20 ar
  21       20       15 ar
  22       14       21 1
  23       21       22 2
  24       21       23 1
  25       23        4 1
  26       23       12 1
  27        2       24 1
  28       24       25 2
  29       24       26 am
  30       26       27 1
  31       27       28 ar
  32       28       29 ar
  33       29       30 ar
  34       30       31 ar
  35       31       32 ar
  36       32       27 ar
  37        2       33 1
  38       14       34 1
  39        1       35 1
  40        1       36 1
  41        1       37 1
  42        7       38 1
  43        8       39 1
  44        9       40 1
  45       10       41 1
  46       16       42 1
  47       17       43 1
  48       18       44 1
  49       19       45 1
  50       20       46 1
  51       26       47 1
  52       28       48 1
  53       29       49 1
  54       30       50 1
  55       31       51 1
  56       32       52 1

@<TRIPOS>MOLECULE

  52   56
SMALL
USER_CHARGES
@<TRIPOS>ATOM
   1 C1           0.1224     0.1224     1.8776 C.3          1    LIG   0.0000
   2 C2           1.0000     1.0000     1.0000 C.3          1    LIG   0.0000
   3 S3          -0.0450     2.0450    -0.0450 S.3          1    LIG   0.0000
   4 C4           0.6275     3.6306     0.2102 C.2          1    LIG   0.0000
   5 N5           0.9036     4.3271    -0.8743 N.2          1    LIG   0.0000
   6 C6           1.4386     5.5867    -0.8002 C.ar         1    LIG   0.0000
   7 C7           1.7306     6.3115    -1.9510 C.ar         1    LIG   0.0000
   8 C8           2.2760     7.5888    -1.8695 C.ar         1    LIG   0.0000
   9 C9           2.5356     8.1563    -0.6272 C.ar         1    LIG   0.0000
  10 C10          2.2475     7.4400     0.5295 C.ar         1    LIG   0.0000
  11 C11          1.7012     6.1640     0.4377 C.ar         1    LIG   0.0000
  12 C12          1.3987     5.4207     1.6040 C.2          1    LIG   0.0000
  13 N13          1.5462     5.7734     2.8137 N.2          1    LIG   0.0000
  14 C14          1.1071     4.6983     3.7120 C.3          1    LIG   0.0000
  15 C15          2.3253     4.2088     4.4784 C.ar         1    LIG   0.0000
  16 C16          2.5419     4.6487     5.7802 C.ar         1    LIG   0.0000
  17 C17          3.6593     4.1963     6.4738 C.ar         1    LIG   0.0000
  18 C18          4.5462     3.3132     5.8654 C.ar         1    LIG   0.0000
  19 C19          4.3216     2.8783     4.5633 C.ar         1    LIG   0.0000
  20 C20          3.2067     3.3264     3.8622 C.ar         1    LIG   0.0000
  21 C21          0.6807     3.6316     2.7267 C.2          1    LIG   0.0000
  22 O22          0.2473     2.5375     3.0417 O.2          1    LIG   0.0000
  23 N23          0.8783     4.1711     1.4543 N.pl3        1    LIG   0.0000
  24 C24          1.8776     0.1224     0.1224 C.2          1    LIG   0.0000
  25 O25          2.6482     0.6245    -0.6482 O.2          1    LIG   0.0000
  26 N26          1.7887    -1.2418     0.2113 N.am         1    LIG   0.0000
  27 C27          2.5971    -2.0502    -0.5971 C.ar         1    LIG   0.0000
  28 C28          3.1659    -3.2037    -0.0671 C.ar         1    LIG   0.0000
  29 C29          3.9682    -4.0004    -0.8772 C.ar         1    LIG   0.0000
  30 C30          4.1943    -3.6409    -2.2024 C.ar         1    LIG   0.0000
  31 C31          3.6212    -2.4858    -2.7242 C.ar         1    LIG   0.0000
  32 C32          2.8180    -1.6829    -1.9205 C.ar         1    LIG   0.0000
  33 H            1.5774     1.5774     1.5774 H            1    LIG   0.0000
  34 H            0.3625     4.9828     4.3158 H            1    LIG   0.0000
  35 H            0.6998    -0.4549     2.4549 H            1    LIG   0.0000
  36 H           -0.4549     0.6998     2.4549 H            1    LIG   0.0000
  37 H           -0.4549    -0.4549     1.3002 H            1    LIG   0.0000
  38 H            1.5462     5.9095    -2.8479 H            1    LIG   0.0000
  39 H            2.4814     8.0988    -2.7048 H            1    LIG   0.0000
  40 H            2.9272     9.0743    -0.5657 H            1    LIG   0.0000
  41 H            2.4329     7.8418     1.4262 H            1    LIG   0.0000
  42 H            1.9011     5.2831     6.2125 H            1    LIG   0.0000
  43 H            3.8256     4.5058     7.4101 H            1    LIG   0.0000
  44 H            5.3487     2.9896     6.3667 H            1    LIG   0.0000
  45 H            4.9619     2.2433     4.1311 H            1    LIG   0.0000
  46 H            3.0406     3.0176     2.9256 H            1    LIG   0.0000
  47 H            1.1465    -1.6602     0.8535 H            1    LIG   0.0000
  48 H            2.9998    -3.4573     0.8858 H            1    LIG   0.0000
  49 H            4.3827    -4.8318    -0.5071 H            1    LIG   0.0000
  50 H            4.7715    -4.2158    -2.7823 H            1    LIG   0.0000
  51 H            3.7866    -2.2324    -3.6773 H            1    LIG   0.0000
  52 H            2.4040    -0.8510    -2.2901 H            1    LIG   0.0000
@<TRIPOS>BOND
   1        1        2 1
   2        2        3 1
   3        3        4 1
   4        4        5 2
   5        5        6 1
   6        6        7 ar
   7        7        8 ar
   8        8        9 ar
   9        9       10 ar
  10       10       11 ar
  11       11        6 ar
  12       11       12 1
  13       12       13 2
  14       13       14 1
  15       14       15 1
  16       15       16 ar
  17       16       17 ar
  18       17       18 ar
  19       18       19 ar
  20       19       20 ar
  21       20       15 ar
  22       14       21 1
  23       21       22 2
  24       21       23 1
  25       23        4 1
  26       23       12 1
  27        2       24 1
  28       24       25 2
  29       24       26 am
  30       26       27 1
  31       27       28 ar
  32       28       29 ar
  33       29       30 ar
  34       30       31 ar
  35       31       32 ar
  36       32       27 ar
  37        2       33 1
  38       14       34 1
  39        1       35 1
  40        1       36 1
  41        1       37 1
  42        7       38 1
  43        8       39 1
  44        9       40 1
  45       10       41 1
  46       16       42 1
  47       17       43 1
  48       18       44 1
  49       19       45 1
  50       20       46 1
  51       26       47 1
  52       28       48 1
  53       29       49 1
  54       30       50 1
  55       31       51 1
  56       32       52 1

@<TRIPOS>MOLECULE

  52   56
SMALL
USER_CHARGES
@<TRIPOS>ATOM
   1 C1           0.1224     0.1224     1.8776 C.3          1    LIG   0.0000
   2 C2           1.0000     1.0000     1.0000 C.3          1    LIG   0.0000
   3 S3          -0.0450     2.0450    -0.0450 S.3          1    LIG   0.0000
   4 C4           1.1020     3.1561    -0.7388 C.2          1    LIG   0.0000
   5 N5           1.9186     3.7528     0.1065 N.2          1    LIG   0.0000
   6 C6           2.8625     4.6499    -0.3211 C.ar         1    LIG   0.0000
   7 C7           3.7164     5.2776     0.5799 C.ar         1    LIG   0.0000
   8 C8           4.6710     6.1893     0.1402 C.ar         1    LIG   0.0000
   9 C9           4.7805     6.4827    -1.2143 C.ar         1    LIG   0.0000
  10 C10          3.9315     5.8607    -2.1233 C.ar         1    LIG   0.0000
  11 C11          2.9811     4.9497    -1.6741 C.ar         1    LIG   0.0000
  12 C12          2.1099     4.3045    -2.5846 C.2          1    LIG   0.0000
  13 N13          2.0708     4.4274    -3.8467 N.2          1    LIG   0.0000
  14 C14          1.0131     3.5764    -4.4059 C.3          1    LIG   0.0000
  15 C15         -0.0352     4.4869    -5.0248 C.ar         1    LIG   0.0000
  16 C16         -0.5446     5.5506    -4.2873 C.ar         1    LIG   0.0000
  17 C17         -1.5040     6.3783    -4.8611 C.ar         1    LIG   0.0000
  18 C18         -1.9440     6.1385    -6.1593 C.ar         1    LIG   0.0000
  19 C19         -1.4288     5.0725    -6.8897 C.ar         1    LIG   0.0000
  20 C20         -0.4694     4.2394    -6.3230 C.ar         1    LIG   0.0000
  21 C21          0.4410     2.9397    -3.1578 C.2          1    LIG   0.0000
  22 O22         -0.4864     2.1498    -3.1514 O.2          1    LIG   0.0000
  23 N23          1.1896     3.4324    -2.0874 N.pl3        1    LIG   0.0000
  24 C24          1.8776     0.1224     0.1224 C.2          1    LIG   0.0000
  25 O25          2.6482     0.6245    -0.6482 O.2          1    LIG   0.0000
  26 N26          1.7887    -1.2418     0.2113 N.am         1    LIG   0.0000
  27 C27          2.2524    -2.0435    -0.8389 C.ar         1    LIG   0.0000
  28 C28          1.5305    -3.1719    -1.2140 C.ar         1    LIG   0.0000
  29 C29          1.9989    -3.9629    -2.2578 C.ar         1    LIG   0.0000
  30 C30          3.1773    -3.6224    -2.9149 C.ar         1    LIG   0.0000
  31 C31          3.8927    -2.4920    -2.5333 C.ar         1    LIG   0.0000
  32 C32          3.4315    -1.6957    -1.4898 C.ar         1    LIG   0.0000
  33 H            1.5774     1.5774     1.5774 H            1    LIG   0.0000
  34 H            1.3660     2.9014    -5.0539 H            1    LIG   0.0000
  35 H            0.6998    -0.4549     2.4549 H            1    LIG   0.0000
  36 H           -0.4549     0.6998     2.4549 H            1    LIG   0.0000
  37 H           -0.4549    -0.4549     1.3002 H            1    LIG   0.0000
  38 H            3.6433     5.0711     1.5556 H            1    LIG   0.0000
  39 H            5.2784     6.6336     0.7987 H            1    LIG   0.0000
  40 H            5.4660     7.1373    -1.5331 H            1    LIG   0.0000
  41 H            4.0042     6.0681    -3.0988 H            1    LIG   0.0000
  42 H           -0.2246     5.7184    -3.3549 H            1    LIG   0.0000
  43 H           -1.8777     7.1460    -4.3405 H            1    LIG   0.0000
  44 H           -2.6338     6.7353    -6.5692 H            1    LIG   0.0000
  45 H           -1.7482     4.9050    -7.8224 H            1    LIG   0.0000
  46 H           -0.0961     3.4713    -6.8431 H            1    LIG   0.0000
  47 H            1.3927    -1.6650     1.0262 H            1    LIG   0.0000
  48 H            0.6841    -3.4117    -0.7384 H            1    LIG   0.0000
  49 H            1.4886    -4.7766    -2.5361 H            1    LIG   0.0000
  50 H            3.5116    -4.1930    -3.6650 H            1    LIG   0.0000
  51 H            4.7387    -2.2517    -3.0092 H            1    LIG   0.0000
  52 H            3.9421    -0.8824    -1.2108 H            1    LIG   0.0000
@<TRIPOS>BOND
   1        1        2 1
   2        2        3 1
   3        3        4 1
   4        4        5 2
   5        5        6 1
   6        6        7 ar
   7        7        8 ar
   8        8        9 ar
   9        9       10 ar
  10       10       11 ar
  11       11        6 ar
  12       11       12 1
  13       12       13 2
  14       13       14 1
  15       14       15 1
  16       15       16 ar
  17       16       17 ar
  18       17       18 ar
  19       18       19 ar
  20       19       20 ar
  21       20       15 ar
  22       14       21 1
  23       21       22 2
  24       21       23 1
  25       23        4 1
  26       23       12 1
  27        2       24 1
  28       24       25 2
  29       24       26 am
  30       26       27 1
  31       27       28 ar
  32       28       29 ar
  33       29       30 ar
  34       30       31 ar
  35       31       32 ar
  36       32       27 ar
  37        2       33 1
  38       14       34 1
  39        1       35 1
  40        1       36 1
  41        1       37 1
  42        7       38 1
  43        8       39 1
  44        9       40 1
  45       10       41 1
  46       16       42 1
  47       17       43 1
  48       18       44 1
  49       19       45 1
  50       20       46 1
  51       26       47 1
  52       28       48 1
  53       29       49 1
  54       30       50 1
  55       31       51 1
  56       32       52 1

@<TRIPOS>MOLECULE

  52   56
SMALL
USER_CHARGES
@<TRIPOS>ATOM
   1 C1           0.1224     0.1224     1.8776 C.3          1    LIG   0.0000
   2 C2           1.0000     1.0000     1.0000 C.3          1    LIG   0.0000
   3 S3          -0.0450     2.0450    -0.0450 S.3          1    LIG   0.0000
   4 C4          -0.7388     0.8980    -1.1561 C.2          1    LIG   0.0000
   5 N5          -1.2838    -0.1755    -0.6194 N.2          1    LIG   0.0000
   6 C6          -1.8590    -1.1501    -1.3927 C.ar         1    LIG   0.0000
   7 C7          -2.4273    -2.2814    -0.8166 C.ar         1    LIG   0.0000
   8 C8          -3.0075    -3.2686    -1.6068 C.ar         1    LIG   0.0000
   9 C9          -3.0245    -3.1314    -2.9901 C.ar         1    LIG   0.0000
  10 C10         -2.4588    -2.0042    -3.5762 C.ar         1    LIG   0.0000
  11 C11         -1.8822    -1.0221    -2.7775 C.ar         1    LIG   0.0000
  12 C12         -1.3039     0.1337    -3.3557 C.2          1    LIG   0.0000
  13 N13         -1.2402     0.4422    -4.5846 N.2          1    LIG   0.0000
  14 C14         -0.5549     1.7303    -4.7485 C.3          1    LIG   0.0000
  15 C15          0.7380     1.4739    -5.5060 C.ar         1    LIG   0.0000
  16 C16          0.7105     0.7340    -6.6836 C.ar         1    LIG   0.0000
  17 C17          1.8982     0.5035    -7.3698 C.ar         1    LIG   0.0000
  18 C18          3.0966     1.0113    -6.8774 C.ar         1    LIG   0.0000
  19 C19          3.1147     1.7504    -5.6991 C.ar         1    LIG   0.0000
  20 C20          1.9313     1.9849    -5.0062 C.ar         1    LIG   0.0000
  21 C21         -0.2263     2.0865    -3.3148 C.2          1    LIG   0.0000
  22 O22          0.3656     3.0955    -2.9747 O.2          1    LIG   0.0000
  23 N23         -0.7412     1.0558    -2.5264 N.pl3        1    LIG   0.0000
  24 C24          1.8776     0.1224     0.1224 C.2          1    LIG   0.0000
  25 O25          2.6482     0.6245    -0.6482 O.2          1    LIG   0.0000
  26 N26          1.7887    -1.2418     0.2113 N.am         1    LIG   0.0000
  27 C27          2.0540    -2.0353    -0.9115 C.ar         1    LIG   0.0000
  28 C28          1.2644    -3.1515    -1.1676 C.ar         1    LIG   0.0000
  29 C29          1.5356    -3.9345    -2.2848 C.ar         1    LIG   0.0000
  30 C30          2.5868    -3.5981    -3.1323 C.ar         1    LIG   0.0000
  31 C31          3.3711    -2.4799    -2.8686 C.ar         1    LIG   0.0000
  32 C32          3.1071    -1.6917    -1.7529 C.ar         1    LIG   0.0000
  33 H            1.5774     1.5774     1.5774 H            1    LIG   0.0000
  34 H           -1.1301     2.4173    -5.1925 H            1    LIG   0.0000
  35 H            0.6998    -0.4549     2.4549 H            1    LIG   0.0000
  36 H           -0.4549     0.6998     2.4549 H            1    LIG   0.0000
  37 H           -0.4549    -0.4549     1.3002 H            1    LIG   0.0000
  38 H           -2.4188    -2.3865     0.1779 H            1    LIG   0.0000
  39 H           -3.4123    -4.0771    -1.1796 H            1    LIG   0.0000
  40 H           -3.4412    -3.8392    -3.5605 H            1    LIG   0.0000
  41 H           -2.4666    -1.8998    -4.5707 H            1    LIG   0.0000
  42 H           -0.1536     0.3717    -7.0329 H            1    LIG   0.0000
  43 H            1.8909    -0.0272    -8.2173 H            1    LIG   0.0000
  44 H            3.9489     0.8440    -7.3731 H            1    LIG   0.0000
  45 H            3.9787     2.1134    -5.3500 H            1    LIG   0.0000
  46 H            1.9385     2.5150    -4.1583 H            1    LIG   0.0000
  47 H            1.5343    -1.6709     1.0780 H            1    LIG   0.0000
  48 H            0.5101    -3.3884    -0.5553 H            1    LIG   0.0000
  49 H            0.9749    -4.7394    -2.4790 H            1    LIG   0.0000
  50 H            2.7793    -4.1629    -3.9347 H            1    LIG   0.0000
  51 H            4.1250    -2.2424    -3.4812 H            1    LIG   0.0000
  52 H            3.6681    -0.8872    -1.5580 H            1    LIG   0.0000
@<TRIPOS>BOND
   1        1        2 1
   2        2        3 1
   3        3        4 1
   4        4        5 2
   5        5        6 1
   6        6        7 ar
   7        7        8 ar
   8        8        9 ar
   9        9       10 ar
  10       10       11 ar
  11       11        6 ar
  12       11       12 1
  13       12       13 2
  14       13       14 1
  15       14       15 1
  16       15       16 ar
  17       16       17 ar
  18       17       18 ar
  19       18       19 ar
  20       19       20 ar
  21       20       15 ar
  22       14       21 1
  23       21       22 2
  24       21       23 1
  25       23        4 1
  26       23       12 1
  27        2       24 1
  28       24       25 2
  29       24       26 am
  30       26       27 1
  31       27       28 ar
  32       28       29 ar
  33       29       30 ar
  34       30       31 ar
  35       31       32 ar
  36       32       27 ar
  37        2       33 1
  38       14       34 1
  39        1       35 1
  40        1       36 1
  41        1       37 1
  42        7       38 1
  43        8       39 1
  44        9       40 1
  45       10       41 1
  46       16       42 1
  47       17       43 1
  48       18       44 1
  49       19       45 1
  50       20       46 1
  51       26       47 1
  52       28       48 1
  53       29       49 1
  54       30       50 1
  55       31       51 1
  56       32       52 1

@<TRIPOS>MOLECULE

  52   56
SMALL
USER_CHARGES
@<TRIPOS>ATOM
   1 C1           0.1224     0.1224     1.8776 C.3          1    LIG   0.0000
   2 C2           1.0000     1.0000     1.0000 C.3          1    LIG   0.0000
   3 S3          -0.0450     2.0450    -0.0450 S.3          1    LIG   0.0000
   4 C4          -0.7388     0.8980    -1.1561 C.2          1    LIG   0.0000
   5 N5           0.1065     0.0814    -1.7528 N.2          1    LIG   0.0000
   6 C6          -0.3211    -0.8625    -2.6499 C.ar         1    LIG   0.0000
   7 C7           0.5799    -1.7164    -3.2776 C.ar         1    LIG   0.0000
   8 C8           0.1402    -2.6710    -4.1893 C.ar         1    LIG   0.0000
   9 C9          -1.2143    -2.7805    -4.4827 C.ar         1    LIG   0.0000
  10 C10         -2.1233    -1.9315    -3.8607 C.ar         1    LIG   0.0000
  11 C11         -1.6741    -0.9811    -2.9497 C.ar         1    LIG   0.0000
  12 C12         -2.5846    -0.1099    -2.3045 C.2          1    LIG   0.0000
  13 N13         -3.8467    -0.0708    -2.4274 N.2          1    LIG   0.0000
  14 C14         -4.4059     0.9869    -1.5764 C.3          1    LIG   0.0000
  15 C15         -5.0248     2.0352    -2.4869 C.ar         1    LIG   0.0000
  16 C16         -4.2873     2.5446    -3.5506 C.ar         1    LIG   0.0000
  17 C17         -4.8611     3.5040    -4.3783 C.ar         1    LIG   0.0000
  18 C18         -6.1593     3.9440    -4.1385 C.ar         1    LIG   0.0000
  19 C19         -6.8897     3.4288    -3.0725 C.ar         1    LIG   0.0000
  20 C20         -6.3230     2.4694    -2.2394 C.ar         1    LIG   0.0000
  21 C21         -3.1578     1.5590    -0.9397 C.2          1    LIG   0.0000
  22 O22         -3.1514     2.4864    -0.1498 O.2          1    LIG   0.0000
  23 N23         -2.0874     0.8104    -1.4324 N.pl3        1    LIG   0.0000
  24 C24          1.8776     0.1224     0.1224 C.2          1    LIG   0.0000
  25 O25          2.6482     0.6245    -0.6482 O.2          1    LIG   0.0000
  26 N26          1.7887    -1.2418     0.2113 N.am         1    LIG   0.0000
  27 C27          2.0540    -2.0353    -0.9115 C.ar         1    LIG   0.0000
  28 C28          1.2644    -3.1515    -1.1676 C.ar         1    LIG   0.0000
  29 C29          1.5356    -3.9345    -2.2848 C.ar         1    LIG   0.0000
  30 C30          2.5868    -3.5981    -3.1323 C.ar         1    LIG   0.0000
  31 C31          3.3711    -2.4799    -2.8686 C.ar         1    LIG   0.0000
  32 C32          3.1071    -1.6917    -1.7529 C.ar         1    LIG   0.0000
  33 H            1.5774     1.5774     1.5774 H            1    LIG   0.0000
  34 H           -5.0539     0.6340    -0.9014 H            1    LIG   0.0000
  35 H            0.6998    -0.4549     2.4549 H            1    LIG   0.0000
  36 H           -0.4549     0.6998     2.4549 H            1    LIG   0.0000
  37 H           -0.4549    -0.4549     1.3002 H            1    LIG   0.0000
  38 H            1.5556    -1.6433    -3.0711 H            1    LIG   0.0000
  39 H            0.7987    -3.2784    -4.6336 H            1    LIG   0.0000
  40 H           -1.5331    -3.4660    -5.1373 H            1    LIG   0.0000
  41 H           -3.0988    -2.0042    -4.0681 H            1    LIG   0.0000
  42 H           -3.3549     2.2246    -3.7184 H            1    LIG   0.0000
  43 H           -4.3405     3.8777    -5.1460 H            1    LIG   0.0000
  44 H           -6.5692     4.6338    -4.7353 H            1    LIG   0.0000
  45 H           -7.8224     3.7482    -2.9050 H            1    LIG   0.0000
  46 H           -6.8431     2.0961    -1.4713 H            1    LIG   0.0000
  47 H            1.5343    -1.6709     1.0780 H            1    LIG   0.0000
  48 H            0.5101    -3.3884    -0.5553 H            1    LIG   0.0000
  49 H            0.9749    -4.7394    -2.4790 H            1    LIG   0.0000
  50 H            2.7793    -4.1629    -3.9347 H            1    LIG   0.0000
  51 H            4.1250    -2.2424    -3.4812 H            1    LIG   0.0000
  52 H            3.6681    -0.8872    -1.5580 H            1    LIG   0.0000
@<TRIPOS>BOND
   1        1        2 1
   2        2        3 1
   3        3        4 1
   4        4        5 2
   5        5        6 1
   6        6        7 ar
   7        7        8 ar
   8        8        9 ar
   9        9       10 ar
  10       10       11 ar
  11       11        6 ar
  12       11       12 1
  13       12       13 2
  14       13       14 1
  15       14       15 1
  16       15       16 ar
  17       16       17 ar
  18       17       18 ar
  19       18       19 ar
  20       19       20 ar
  21       20       15 ar
  22       14       21 1
  23       21       22 2
  24       21       23 1
  25       23        4 1
  26       23       12 1
  27        2       24 1
  28       24       25 2
  29       24       26 am
  30       26       27 1
  31       27       28 ar
  32       28       29 ar
  33       29       30 ar
  34       30       31 ar
  35       31       32 ar
  36       32       27 ar
  37        2       33 1
  38       14       34 1
  39        1       35 1
  40        1       36 1
  41        1       37 1
  42        7       38 1
  43        8       39 1
  44        9       40 1
  45       10       41 1
  46       16       42 1
  47       17       43 1
  48       18       44 1
  49       19       45 1
  50       20       46 1
  51       26       47 1
  52       28       48 1
  53       29       49 1
  54       30       50 1
  55       31       51 1
  56       32       52 1

@<TRIPOS>MOLECULE

  52   56
SMALL
USER_CHARGES
@<TRIPOS>ATOM
   1 C1           0.1224     0.1224     1.8776 C.3          1    LIG   0.0000
   2 C2           1.0000     1.0000     1.0000 C.3          1    LIG   0.0000
   3 S3          -0.0450     2.0450    -0.0450 S.3          1    LIG   0.0000
   4 C4          -1.4658     1.0628    -0.2643 C.2          1    LIG   0.0000
   5 N5          -2.4235     1.2173     0.6281 N.2          1    LIG   0.0000
   6 C6          -3.5880     0.4976     0.5616 C.ar         1    LIG   0.0000
   7 C7          -4.5906     0.6649     1.5112 C.ar         1    LIG   0.0000
   8 C8          -5.7694    -0.0704     1.4400 C.ar         1    LIG   0.0000
   9 C9          -5.9571    -0.9858     0.4107 C.ar         1    LIG   0.0000
  10 C10         -4.9608    -1.1609    -0.5437 C.ar         1    LIG   0.0000
  11 C11         -3.7861    -0.4201    -0.4646 C.ar         1    LIG   0.0000
  12 C12         -2.7618    -0.5825    -1.4284 C.2          1    LIG   0.0000
  13 N13         -2.7574    -1.3477    -2.4403 N.2          1    LIG   0.0000
  14 C14         -1.4954    -1.2060    -3.1770 C.3          1    LIG   0.0000
  15 C15         -0.7588    -2.5333    -3.0933 C.ar         1    LIG   0.0000
  16 C16         -0.5855    -3.1473    -1.8572 C.ar         1    LIG   0.0000
  17 C17          0.0903    -4.3611    -1.7897 C.ar         1    LIG   0.0000
  18 C18          0.5844    -4.9486    -2.9504 C.ar         1    LIG   0.0000
  19 C19          0.4062    -4.3275    -4.1824 C.ar         1    LIG   0.0000
  20 C20         -0.2680    -3.1129    -4.2587 C.ar         1    LIG   0.0000
  21 C21         -0.7646    -0.1806    -2.3374 C.2          1    LIG   0.0000
  22 O22          0.3537     0.2372    -2.5804 O.2          1    LIG   0.0000
  23 N23         -1.6274     0.1589    -1.2936 N.pl3        1    LIG   0.0000
  24 C24          1.8776     0.1224     0.1224 C.2          1    LIG   0.0000
  25 O25          3.0725     0.2003     0.2003 O.2          1    LIG   0.0000
  26 N26          1.3043    -0.7574    -0.7574 N.am         1    LIG   0.0000
  27 C27          2.0463    -1.2510    -1.8375 C.ar         1    LIG   0.0000
  28 C28          2.2593    -2.6203    -1.9578 C.ar         1    LIG   0.0000
  29 C29          2.9982    -3.1016    -3.0335 C.ar         1    LIG   0.0000
  30 C30          3.5150    -2.2167    -3.9749 C.ar         1    LIG   0.0000
  31 C31          3.2968    -0.8488    -3.8468 C.ar         1    LIG   0.0000
  32 C32          2.5594    -0.3589    -2.7735 C.ar         1    LIG   0.0000
  33 H            1.5774     1.5774     1.5774 H            1    LIG   0.0000
  34 H           -1.6333    -0.9024    -4.1197 H            1    LIG   0.0000
  35 H            0.6998    -0.4549     2.4549 H            1    LIG   0.0000
  36 H           -0.4549     0.6998     2.4549 H            1    LIG   0.0000
  37 H           -0.4549    -0.4549     1.3002 H            1    LIG   0.0000
  38 H           -4.4624     1.3219     2.2542 H            1    LIG   0.0000
  39 H           -6.4821     0.0596     2.1294 H            1    LIG   0.0000
  40 H           -6.8036    -1.5154     0.3569 H            1    LIG   0.0000
  41 H           -5.0888    -1.8186    -1.2860 H            1    LIG   0.0000
  42 H           -0.9428    -2.7208    -1.0263 H            1    LIG   0.0000
  43 H            0.2212    -4.8119    -0.9067 H            1    LIG   0.0000
  44 H            1.0698    -5.8213    -2.8987 H            1    LIG   0.0000
  45 H            0.7629    -4.7543    -5.0134 H            1    LIG   0.0000
  46 H           -0.3984    -2.6617    -5.1415 H            1    LIG   0.0000
  47 H            0.3560    -1.0472    -0.6283 H            1    LIG   0.0000
  48 H            1.8854    -3.2517    -1.2785 H            1    LIG   0.0000
  49 H            3.1581    -4.0840    -3.1304 H            1    LIG   0.0000
  50 H            4.0458    -2.5657    -4.7472 H            1    LIG   0.0000
  51 H            3.6701    -0.2173    -4.5264 H            1    LIG   0.0000
  52 H            2.4001     0.6235    -2.6760 H            1    LIG   0.0000
@<TRIPOS>BOND
   1        1        2 1
   2        2        3 1
   3        3        4 1
   4        4        5 2
   5        5        6 1
   6        6        7 ar
   7        7        8 ar
   8        8        9 ar
   9        9       10 ar
  10       10       11 ar
  11       11        6 ar
  12       11       12 1
  13       12       13 2
  14       13       14 1
  15       14       15 1
  16       15       16 ar
  17       16       17 ar
  18       17       18 ar
  19       18       19 ar
  20       19       20 ar
  21       20       15 ar
  22       14       21 1
  23       21       22 2
  24       21       23 1
  25       23        4 1
  26       23       12 1
  27        2       24 1
  28       24       25 2
  29       24       26 am
  30       26       27 1
  31       27       28 ar
  32       28       29 ar
  33       29       30 ar
  34       30       31 ar
  35       31       32 ar
  36       32       27 ar
  37        2       33 1
  38       14       34 1
  39        1       35 1
  40        1       36 1
  41        1       37 1
  42        7       38 1
  43        8       39 1
  44        9       40 1
  45       10       41 1
  46       16       42 1
  47       17       43 1
  48       18       44 1
  49       19       45 1
  50       20       46 1
  51       26       47 1
  52       28       48 1
  53       29       49 1
  54       30       50 1
  55       31       51 1
  56       32       52 1

