@<TRIPOS>MOLECULE
*****
 52 56 0 0 0
SMALL
USER_CHARGES

@<TRIPOS>ATOM
      1 C1          0.1224    0.1224    1.8776 C.3     1  LIG1        0.0000
      2 C2          1.0000    1.0000    1.0000 C.3     1  LIG1        0.0000
      3 S3         -0.0450    2.0450   -0.0450 S.3     1  LIG1        0.0000
      4 C4          1.1020    3.1561   -0.7388 C.2     1  LIG1        0.0000
      5 N5          1.9186    3.7528    0.1065 N.2     1  LIG1        0.0000
      6 C6          2.8625    4.6499   -0.3211 C.3     1  LIG1        0.0000
      7 C7          3.7164    5.2776    0.5799 C.3     1  LIG1        0.0000
      8 C8          4.6710    6.1893    0.1402 C.3     1  LIG1        0.0000
      9 C9          4.7805    6.4827   -1.2143 C.3     1  LIG1        0.0000
     10 C10         3.9315    5.8607   -2.1233 C.3     1  LIG1        0.0000
     11 C11         2.9811    4.9497   -1.6741 C.3     1  LIG1        0.0000
     12 C12         2.1099    4.3045   -2.5846 C.2     1  LIG1        0.0000
     13 N13         2.0708    4.4274   -3.8467 N.2     1  LIG1        0.0000
     14 C14         1.0131    3.5764   -4.4059 C.3     1  LIG1        0.0000
     15 C15        -0.0352    4.4869   -5.0248 C.3     1  LIG1        0.0000
     16 C16        -0.5446    5.5506   -4.2873 C.3     1  LIG1        0.0000
     17 C17        -1.5040    6.3783   -4.8611 C.3     1  LIG1        0.0000
     18 C18        -1.9440    6.1385   -6.1593 C.3     1  LIG1        0.0000
     19 C19        -1.4288    5.0725   -6.8897 C.3     1  LIG1        0.0000
     20 C20        -0.4694    4.2394   -6.3230 C.3     1  LIG1        0.0000
     21 C21         0.4410    2.9397   -3.1578 C.2     1  LIG1        0.0000
     22 O22        -0.4864    2.1498   -3.1514 O.2     1  LIG1        0.0000
     23 N23         1.1896    3.4324   -2.0874 N.am    1  LIG1        0.0000
     24 C24         1.8776    0.1224    0.1224 C.2     1  LIG1        0.0000
     25 O25         2.6482    0.6245   -0.6482 O.2     1  LIG1        0.0000
     26 N26         1.7887   -1.2418    0.2113 N.am    1  LIG1        0.0000
     27 C27         2.2524   -2.0435   -0.8389 C.3     1  LIG1        0.0000
     28 C28         1.5305   -3.1719   -1.2140 C.3     1  LIG1        0.0000
     29 C29         1.9989   -3.9629   -2.2578 C.3     1  LIG1        0.0000
     30 C30         3.1773   -3.6224   -2.9149 C.3     1  LIG1        0.0000
     31 C31         3.8927   -2.4920   -2.5333 C.3     1  LIG1        0.0000
     32 C32         3.4315   -1.6957   -1.4898 C.3     1  LIG1        0.0000
     33 H           1.5774    1.5774    1.5774 H       1  LIG1        0.0000
     34 H           1.3660    2.9014   -5.0539 H       1  LIG1        0.0000
     35 H           0.6998   -0.4549    2.4549 H       1  LIG1        0.0000
     36 H          -0.4549    0.6998    2.4549 H       1  LIG1        0.0000
     37 H          -0.4549   -0.4549    1.3002 H       1  LIG1        0.0000
     38 H           3.6433    5.0711    1.5556 H       1  LIG1        0.0000
     39 H           5.2784    6.6336    0.7987 H       1  LIG1        0.0000
     40 H           5.4660    7.1373   -1.5331 H       1  LIG1        0.0000
     41 H           4.0042    6.0681   -3.0988 H       1  LIG1        0.0000
     42 H          -0.2246    5.7184   -3.3549 H       1  LIG1        0.0000
     43 H          -1.8777    7.1460   -4.3405 H       1  LIG1        0.0000
     44 H          -2.6338    6.7353   -6.5692 H       1  LIG1        0.0000
     45 H          -1.7482    4.9050   -7.8224 H       1  LIG1        0.0000
     46 H          -0.0961    3.4713   -6.8431 H       1  LIG1        0.0000
     47 H           1.3927   -1.6650    1.0262 H       1  LIG1        0.0000
     48 H           0.6841   -3.4117   -0.7384 H       1  LIG1        0.0000
     49 H           1.4886   -4.7766   -2.5361 H       1  LIG1        0.0000
     50 H           3.5116   -4.1930   -3.6650 H       1  LIG1        0.0000
     51 H           4.7387   -2.2517   -3.0092 H       1  LIG1        0.0000
     52 H           3.9421   -0.8824   -1.2108 H       1  LIG1        0.0000
@<TRIPOS>BOND
     1     1     2    1
     2     2     3    1
     3     3     4    1
     4     4     5    2
     5     5     6    1
     6     6     7   ar
     7     7     8   ar
     8     8     9   ar
     9     9    10   ar
    10    10    11   ar
    11    11     6   ar
    12    11    12    1
    13    12    13    2
    14    13    14    1
    15    14    15    1
    16    15    16   ar
    17    16    17   ar
    18    17    18   ar
    19    18    19   ar
    20    19    20   ar
    21    20    15   ar
    22    14    21    1
    23    21    22    2
    24    21    23   am
    25    23     4    1
    26    23    12    1
    27     2    24    1
    28    24    25    2
    29    24    26   am
    30    26    27    1
    31    27    28   ar
    32    28    29   ar
    33    29    30   ar
    34    30    31   ar
    35    31    32   ar
    36    32    27   ar
    37     2    33    1
    38    14    34    1
    39     1    35    1
    40     1    36    1
    41     1    37    1
    42     7    38    1
    43     8    39    1
    44     9    40    1
    45    10    41    1
    46    16    42    1
    47    17    43    1
    48    18    44    1
    49    19    45    1
    50    20    46    1
    51    26    47    1
    52    28    48    1
    53    29    49    1
    54    30    50    1
    55    31    51    1
    56    32    52    1
