@<TRIPOS>MOLECULE
*****
 52 56 0 0 0
SMALL
USER_CHARGES

@<TRIPOS>ATOM
      1 C1          0.1224    0.1224    1.8776 C.3     1  LIG1        0.0000
      2 C2          1.0000    1.0000    1.0000 C.3     1  LIG1        0.0000
      3 S3         -0.0450    2.0450   -0.0450 S.3     1  LIG1        0.0000
      4 C4         -1.1561    0.8980   -0.7388 C.2     1  LIG1        0.0000
      5 N5         -0.7877    0.3469   -1.8781 N.2     1  LIG1        0.0000
      6 C6         -1.5801   -0.5682   -2.5209 C.3     1  LIG1        0.0000
      7 C7         -1.1840   -1.1404   -3.7253 C.3     1  LIG1        0.0000
      8 C8         -1.9938   -2.0669   -4.3745 C.3     1  LIG1        0.0000
      9 C9         -3.2154   -2.4318   -3.8203 C.3     1  LIG1        0.0000
     10 C10        -3.6208   -1.8655   -2.6166 C.3     1  LIG1        0.0000
     11 C11        -2.8036   -0.9409   -1.9745 C.3     1  LIG1        0.0000
     12 C12        -3.1981   -0.3558   -0.7471 C.2     1  LIG1        0.0000
     13 N13        -4.2573   -0.5743   -0.0839 N.2     1  LIG1        0.0000
     14 C14        -4.2704    0.2456    1.1340 C.3     1  LIG1        0.0000
     15 C15        -5.4263    1.2264    1.0195 C.3     1  LIG1        0.0000
     16 C16        -6.2040    1.5072    2.1381 C.3     1  LIG1        0.0000
     17 C17        -7.2600    2.4052    2.0243 C.3     1  LIG1        0.0000
     18 C18        -7.5290    3.0123    0.8013 C.3     1  LIG1        0.0000
     19 C19        -6.7459    2.7258   -0.3121 C.3     1  LIG1        0.0000
     20 C20        -5.6881    1.8282   -0.2070 C.3     1  LIG1        0.0000
     21 C21        -2.9655    1.0016    1.0078 C.2     1  LIG1        0.0000
     22 O22        -2.5646    1.8220    1.8144 O.2     1  LIG1        0.0000
     23 N23        -2.3648    0.5539   -0.1702 N.am    1  LIG1        0.0000
     24 C24         1.8776    0.1224    0.1224 C.2     1  LIG1        0.0000
     25 O25         1.7997   -1.0725    0.2003 O.2     1  LIG1        0.0000
     26 N26         2.7574    0.6957   -0.7574 N.am    1  LIG1        0.0000
     27 C27         3.5659   -0.1128   -1.5659 C.3     1  LIG1        0.0000
     28 C28         4.8907    0.2459   -1.7919 C.3     1  LIG1        0.0000
     29 C29         5.6863   -0.5627   -2.5968 C.3     1  LIG1        0.0000
     30 C30         5.1554   -1.7163   -3.1659 C.3     1  LIG1        0.0000
     31 C31         3.8295   -2.0674   -2.9343 C.3     1  LIG1        0.0000
     32 C32         3.0266   -1.2639   -2.1309 C.3     1  LIG1        0.0000
     33 H           1.5774    1.5774    1.5774 H       1  LIG1        0.0000
     34 H          -4.3158   -0.3055    1.9672 H       1  LIG1        0.0000
     35 H           0.6998   -0.4549    2.4549 H       1  LIG1        0.0000
     36 H          -0.4549    0.6998    2.4549 H       1  LIG1        0.0000
     37 H          -0.4549   -0.4549    1.3002 H       1  LIG1        0.0000
     38 H          -0.3064   -0.8826   -4.1295 H       1  LIG1        0.0000
     39 H          -1.6970   -2.4704   -5.2400 H       1  LIG1        0.0000
     40 H          -3.7992   -3.0978   -4.2845 H       1  LIG1        0.0000
     41 H          -4.4989   -2.1227   -2.2130 H       1  LIG1        0.0000
     42 H          -6.0060    1.0681    3.0145 H       1  LIG1        0.0000
     43 H          -7.8261    2.6147    2.8215 H       1  LIG1        0.0000
     44 H          -8.2888    3.6576    0.7225 H       1  LIG1        0.0000
     45 H          -6.9433    3.1653   -1.1884 H       1  LIG1        0.0000
     46 H          -5.1223    1.6180   -1.0043 H       1  LIG1        0.0000
     47 H           2.8223    1.6915   -0.8223 H       1  LIG1        0.0000
     48 H           5.2670    1.0759   -1.3802 H       1  LIG1        0.0000
     49 H           6.6401   -0.3149   -2.7667 H       1  LIG1        0.0000
     50 H           5.7298   -2.2956   -3.7442 H       1  LIG1        0.0000
     51 H           3.4532   -2.8977   -3.3454 H       1  LIG1        0.0000
     52 H           2.0726   -1.5110   -1.9615 H       1  LIG1        0.0000
@<TRIPOS>BOND
     1     1     2    1
     2     2     3    1
     3     3     4    1
     4     4     5    2
     5     5     6    1
     6     6     7   ar
     7     7     8   ar
     8     8     9   ar
     9     9    10   ar
    10    10    11   ar
    11    11     6   ar
    12    11    12    1
    13    12    13    2
    14    13    14    1
    15    14    15    1
    16    15    16   ar
    17    16    17   ar
    18    17    18   ar
    19    18    19   ar
    20    19    20   ar
    21    20    15   ar
    22    14    21    1
    23    21    22    2
    24    21    23   am
    25    23     4    1
    26    23    12    1
    27     2    24    1
    28    24    25    2
    29    24    26   am
    30    26    27    1
    31    27    28   ar
    32    28    29   ar
    33    29    30   ar
    34    30    31   ar
    35    31    32   ar
    36    32    27   ar
    37     2    33    1
    38    14    34    1
    39     1    35    1
    40     1    36    1
    41     1    37    1
    42     7    38    1
    43     8    39    1
    44     9    40    1
    45    10    41    1
    46    16    42    1
    47    17    43    1
    48    18    44    1
    49    19    45    1
    50    20    46    1
    51    26    47    1
    52    28    48    1
    53    29    49    1
    54    30    50    1
    55    31    51    1
    56    32    52    1
