@<TRIPOS>MOLECULE
*****
 52 56 0 0 0
SMALL
USER_CHARGES

@<TRIPOS>ATOM
      1 C1          0.1224    0.1224    1.8776 C.3     1  LIG1        0.0000
      2 C2          1.0000    1.0000    1.0000 C.3     1  LIG1        0.0000
      3 S3         -0.0450    2.0450   -0.0450 S.3     1  LIG1        0.0000
      4 C4          0.6275    3.6306    0.2102 C.2     1  LIG1        0.0000
      5 N5          0.9036    4.3271   -0.8743 N.2     1  LIG1        0.0000
      6 C6          1.4386    5.5867   -0.8002 C.3     1  LIG1        0.0000
      7 C7          1.7306    6.3115   -1.9510 C.3     1  LIG1        0.0000
      8 C8          2.2760    7.5888   -1.8695 C.3     1  LIG1        0.0000
      9 C9          2.5356    8.1563   -0.6272 C.3     1  LIG1        0.0000
     10 C10         2.2475    7.4400    0.5295 C.3     1  LIG1        0.0000
     11 C11         1.7012    6.1640    0.4377 C.3     1  LIG1        0.0000
     12 C12         1.3987    5.4207    1.6040 C.2     1  LIG1        0.0000
     13 N13         1.5462    5.7734    2.8137 N.2     1  LIG1        0.0000
     14 C14         1.1071    4.6983    3.7120 C.3     1  LIG1        0.0000
     15 C15         2.3253    4.2088    4.4784 C.3     1  LIG1        0.0000
     16 C16         2.5419    4.6487    5.7802 C.3     1  LIG1        0.0000
     17 C17         3.6593    4.1963    6.4738 C.3     1  LIG1        0.0000
     18 C18         4.5462    3.3132    5.8654 C.3     1  LIG1        0.0000
     19 C19         4.3216    2.8783    4.5633 C.3     1  LIG1        0.0000
     20 C20         3.2067    3.3264    3.8622 C.3     1  LIG1        0.0000
     21 C21         0.6807    3.6316    2.7267 C.2     1  LIG1        0.0000
     22 O22         0.2473    2.5375    3.0417 O.2     1  LIG1        0.0000
     23 N23         0.8783    4.1711    1.4543 N.am    1  LIG1        0.0000
     24 C24         1.8776    0.1224    0.1224 C.2     1  LIG1        0.0000
     25 O25         2.6482    0.6245   -0.6482 O.2     1  LIG1        0.0000
     26 N26         1.7887   -1.2418    0.2113 N.am    1  LIG1        0.0000
     27 C27         2.5971   -2.0502   -0.5971 C.3     1  LIG1        0.0000
     28 C28         3.1659   -3.2037   -0.0671 C.3     1  LIG1        0.0000
     29 C29         3.9682   -4.0004   -0.8772 C.3     1  LIG1        0.0000
     30 C30         4.1943   -3.6409   -2.2024 C.3     1  LIG1        0.0000
     31 C31         3.6212   -2.4858   -2.7242 C.3     1  LIG1        0.0000
     32 C32         2.8180   -1.6829   -1.9205 C.3     1  LIG1        0.0000
     33 H           1.5774    1.5774    1.5774 H       1  LIG1        0.0000
     34 H           0.3625    4.9828    4.3158 H       1  LIG1        0.0000
     35 H           0.6998   -0.4549    2.4549 H       1  LIG1        0.0000
     36 H          -0.4549    0.6998    2.4549 H       1  LIG1        0.0000
     37 H          -0.4549   -0.4549    1.3002 H       1  LIG1        0.0000
     38 H           1.5462    5.9095   -2.8479 H       1  LIG1        0.0000
     39 H           2.4814    8.0988   -2.7048 H       1  LIG1        0.0000
     40 H           2.9272    9.0743   -0.5657 H       1  LIG1        0.0000
     41 H           2.4329    7.8418    1.4262 H       1  LIG1        0.0000
     42 H           1.9011    5.2831    6.2125 H       1  LIG1        0.0000
     43 H           3.8256    4.5058    7.4101 H       1  LIG1        0.0000
     44 H           5.3487    2.9896    6.3667 H       1  LIG1        0.0000
     45 H           4.9619    2.2433    4.1311 H       1  LIG1        0.0000
     46 H           3.0406    3.0176    2.9256 H       1  LIG1        0.0000
     47 H           1.1465   -1.6602    0.8535 H       1  LIG1        0.0000
     48 H           2.9998   -3.4573    0.8858 H       1  LIG1        0.0000
     49 H           4.3827   -4.8318   -0.5071 H       1  LIG1        0.0000
     50 H           4.7715   -4.2158   -2.7823 H       1  LIG1        0.0000
     51 H           3.7866   -2.2324   -3.6773 H       1  LIG1        0.0000
     52 H           2.4040   -0.8510   -2.2901 H       1  LIG1        0.0000
@<TRIPOS>BOND
     1     1     2    1
     2     2     3    1
     3     3     4    1
     4     4     5    2
     5     5     6    1
     6     6     7   ar
     7     7     8   ar
     8     8     9   ar
     9     9    10   ar
    10    10    11   ar
    11    11     6   ar
    12    11    12    1
    13    12    13    2
    14    13    14    1
    15    14    15    1
    16    15    16   ar
    17    16    17   ar
    18    17    18   ar
    19    18    19   ar
    20    19    20   ar
    21    20    15   ar
    22    14    21    1
    23    21    22    2
    24    21    23   am
    25    23     4    1
    26    23    12    1
    27     2    24    1
    28    24    25    2
    29    24    26   am
    30    26    27    1
    31    27    28   ar
    32    28    29   ar
    33    29    30   ar
    34    30    31   ar
    35    31    32   ar
    36    32    27   ar
    37     2    33    1
    38    14    34    1
    39     1    35    1
    40     1    36    1
    41     1    37    1
    42     7    38    1
    43     8    39    1
    44     9    40    1
    45    10    41    1
    46    16    42    1
    47    17    43    1
    48    18    44    1
    49    19    45    1
    50    20    46    1
    51    26    47    1
    52    28    48    1
    53    29    49    1
    54    30    50    1
    55    31    51    1
    56    32    52    1
