@<TRIPOS>MOLECULE
*****
 52 56 0 0 0
SMALL
USER_CHARGES

@<TRIPOS>ATOM
      1 C1          0.1224    0.1224    1.8776 C.3     1  LIG1        0.0000
      2 C2          1.0000    1.0000    1.0000 C.3     1  LIG1        0.0000
      3 S3         -0.0450    2.0450   -0.0450 S.3     1  LIG1        0.0000
      4 C4         -0.7388    0.8980   -1.1561 C.2     1  LIG1        0.0000
      5 N5         -1.2838   -0.1755   -0.6194 N.2     1  LIG1        0.0000
      6 C6         -1.8590   -1.1501   -1.3927 C.3     1  LIG1        0.0000
      7 C7         -2.4273   -2.2814   -0.8166 C.3     1  LIG1        0.0000
      8 C8         -3.0075   -3.2686   -1.6068 C.3     1  LIG1        0.0000
      9 C9         -3.0245   -3.1314   -2.9901 C.3     1  LIG1        0.0000
     10 C10        -2.4588   -2.0042   -3.5762 C.3     1  LIG1        0.0000
     11 C11        -1.8822   -1.0221   -2.7775 C.3     1  LIG1        0.0000
     12 C12        -1.3039    0.1337   -3.3557 C.2     1  LIG1        0.0000
     13 N13        -1.2402    0.4422   -4.5846 N.2     1  LIG1        0.0000
     14 C14        -0.5549    1.7303   -4.7485 C.3     1  LIG1        0.0000
     15 C15         0.7380    1.4739   -5.5060 C.3     1  LIG1        0.0000
     16 C16         0.7105    0.7340   -6.6836 C.3     1  LIG1        0.0000
     17 C17         1.8982    0.5035   -7.3698 C.3     1  LIG1        0.0000
     18 C18         3.0966    1.0113   -6.8774 C.3     1  LIG1        0.0000
     19 C19         3.1147    1.7504   -5.6991 C.3     1  LIG1        0.0000
     20 C20         1.9313    1.9849   -5.0062 C.3     1  LIG1        0.0000
     21 C21        -0.2263    2.0865   -3.3148 C.2     1  LIG1        0.0000
     22 O22         0.3656    3.0955   -2.9747 O.2     1  LIG1        0.0000
     23 N23        -0.7412    1.0558   -2.5264 N.am    1  LIG1        0.0000
     24 C24         1.8776    0.1224    0.1224 C.2     1  LIG1        0.0000
     25 O25         2.6482    0.6245   -0.6482 O.2     1  LIG1        0.0000
     26 N26         1.7887   -1.2418    0.2113 N.am    1  LIG1        0.0000
     27 C27         2.0540   -2.0353   -0.9115 C.3     1  LIG1        0.0000
     28 C28         1.2644   -3.1515   -1.1676 C.3     1  LIG1        0.0000
     29 C29         1.5356   -3.9345   -2.2848 C.3     1  LIG1        0.0000
     30 C30         2.5868   -3.5981   -3.1323 C.3     1  LIG1        0.0000
     31 C31         3.3711   -2.4799   -2.8686 C.3     1  LIG1        0.0000
     32 C32         3.1071   -1.6917   -1.7529 C.3     1  LIG1        0.0000
     33 H           1.5774    1.5774    1.5774 H       1  LIG1        0.0000
     34 H          -1.1301    2.4173   -5.1925 H       1  LIG1        0.0000
     35 H           0.6998   -0.4549    2.4549 H       1  LIG1        0.0000
     36 H          -0.4549    0.6998    2.4549 H       1  LIG1        0.0000
     37 H          -0.4549   -0.4549    1.3002 H       1  LIG1        0.0000
     38 H          -2.4188   -2.3865    0.1779 H       1  LIG1        0.0000
     39 H          -3.4123   -4.0771   -1.1796 H       1  LIG1        0.0000
     40 H          -3.4412   -3.8392   -3.5605 H       1  LIG1        0.0000
     41 H          -2.4666   -1.8998   -4.5707 H       1  LIG1        0.0000
     42 H          -0.1536    0.3717   -7.0329 H       1  LIG1        0.0000
     43 H           1.8909   -0.0272   -8.2173 H       1  LIG1        0.0000
     44 H           3.9489    0.8440   -7.3731 H       1  LIG1        0.0000
     45 H           3.9787    2.1134   -5.3500 H       1  LIG1        0.0000
     46 H           1.9385    2.5150   -4.1583 H       1  LIG1        0.0000
     47 H           1.5343   -1.6709    1.0780 H       1  LIG1        0.0000
     48 H           0.5101   -3.3884   -0.5553 H       1  LIG1        0.0000
     49 H           0.9749   -4.7394   -2.4790 H       1  LIG1        0.0000
     50 H           2.7793   -4.1629   -3.9347 H       1  LIG1        0.0000
     51 H           4.1250   -2.2424   -3.4812 H       1  LIG1        0.0000
     52 H           3.6681   -0.8872   -1.5580 H       1  LIG1        0.0000
@<TRIPOS>BOND
     1     1     2    1
     2     2     3    1
     3     3     4    1
     4     4     5    2
     5     5     6    1
     6     6     7   ar
     7     7     8   ar
     8     8     9   ar
     9     9    10   ar
    10    10    11   ar
    11    11     6   ar
    12    11    12    1
    13    12    13    2
    14    13    14    1
    15    14    15    1
    16    15    16   ar
    17    16    17   ar
    18    17    18   ar
    19    18    19   ar
    20    19    20   ar
    21    20    15   ar
    22    14    21    1
    23    21    22    2
    24    21    23   am
    25    23     4    1
    26    23    12    1
    27     2    24    1
    28    24    25    2
    29    24    26   am
    30    26    27    1
    31    27    28   ar
    32    28    29   ar
    33    29    30   ar
    34    30    31   ar
    35    31    32   ar
    36    32    27   ar
    37     2    33    1
    38    14    34    1
    39     1    35    1
    40     1    36    1
    41     1    37    1
    42     7    38    1
    43     8    39    1
    44     9    40    1
    45    10    41    1
    46    16    42    1
    47    17    43    1
    48    18    44    1
    49    19    45    1
    50    20    46    1
    51    26    47    1
    52    28    48    1
    53    29    49    1
    54    30    50    1
    55    31    51    1
    56    32    52    1
