@<TRIPOS>MOLECULE
*****
 52 56 0 0 0
SMALL
USER_CHARGES

@<TRIPOS>ATOM
      1 C1          0.1224    0.1224    1.8776 C.3     1  LIG1        0.0000
      2 C2          1.0000    1.0000    1.0000 C.3     1  LIG1        0.0000
      3 S3         -0.0450    2.0450   -0.0450 S.3     1  LIG1        0.0000
      4 C4         -0.0234    3.5680    0.7985 C.2     1  LIG1        0.0000
      5 N5         -1.1965    4.1251    1.0238 N.2     1  LIG1        0.0000
      6 C6         -1.3064    5.3253    1.6766 C.3     1  LIG1        0.0000
      7 C7         -2.5492    5.9069    1.9053 C.3     1  LIG1        0.0000
      8 C8         -2.6543    7.1266    2.5662 C.3     1  LIG1        0.0000
      9 C9         -1.5091    7.7795    3.0075 C.3     1  LIG1        0.0000
     10 C10        -0.2617    7.2066    2.7838 C.3     1  LIG1        0.0000
     11 C11        -0.1670    5.9862    2.1230 C.3     1  LIG1        0.0000
     12 C12         1.0937    5.3861    1.8886 C.2     1  LIG1        0.0000
     13 N13         2.2376    5.8165    2.2290 N.2     1  LIG1        0.0000
     14 C14         3.2817    4.8836    1.7873 C.3     1  LIG1        0.0000
     15 C15         4.1362    5.6004    0.7541 C.3     1  LIG1        0.0000
     16 C16         3.9250    5.3605   -0.5996 C.3     1  LIG1        0.0000
     17 C17         4.7117    6.0200   -1.5380 C.3     1  LIG1        0.0000
     18 C18         5.6971    6.9089   -1.1192 C.3     1  LIG1        0.0000
     19 C19         5.9012    7.1430    0.2368 C.3     1  LIG1        0.0000
     20 C20         5.1191    6.4869    1.1820 C.3     1  LIG1        0.0000
     21 C21         2.4638    3.8137    1.0968 C.2     1  LIG1        0.0000
     22 O22         2.9347    2.8265    0.5603 O.2     1  LIG1        0.0000
     23 N23         1.1276    4.1976    1.2246 N.am    1  LIG1        0.0000
     24 C24         1.8776    0.1224    0.1224 C.2     1  LIG1        0.0000
     25 O25         1.7997   -1.0725    0.2003 O.2     1  LIG1        0.0000
     26 N26         2.7574    0.6957   -0.7574 N.am    1  LIG1        0.0000
     27 C27         3.5659   -0.1128   -1.5659 C.3     1  LIG1        0.0000
     28 C28         4.8907    0.2459   -1.7919 C.3     1  LIG1        0.0000
     29 C29         5.6863   -0.5627   -2.5968 C.3     1  LIG1        0.0000
     30 C30         5.1554   -1.7163   -3.1659 C.3     1  LIG1        0.0000
     31 C31         3.8295   -2.0674   -2.9343 C.3     1  LIG1        0.0000
     32 C32         3.0266   -1.2639   -2.1309 C.3     1  LIG1        0.0000
     33 H           1.5774    1.5774    1.5774 H       1  LIG1        0.0000
     34 H           3.8212    4.5231    2.5482 H       1  LIG1        0.0000
     35 H           0.6998   -0.4549    2.4549 H       1  LIG1        0.0000
     36 H          -0.4549    0.6998    2.4549 H       1  LIG1        0.0000
     37 H          -0.4549   -0.4549    1.3002 H       1  LIG1        0.0000
     38 H          -3.3771    5.4427    1.5907 H       1  LIG1        0.0000
     39 H          -3.5540    7.5338    2.7238 H       1  LIG1        0.0000
     40 H          -1.5817    8.6561    3.4832 H       1  LIG1        0.0000
     41 H           0.5661    7.6716    3.0975 H       1  LIG1        0.0000
     42 H           3.2153    4.7208   -0.8949 H       1  LIG1        0.0000
     43 H           4.5693    5.8554   -2.5140 H       1  LIG1        0.0000
     44 H           6.2612    7.3816   -1.7962 H       1  LIG1        0.0000
     45 H           6.6104    7.7831    0.5322 H       1  LIG1        0.0000
     46 H           5.2619    6.6508    2.1581 H       1  LIG1        0.0000
     47 H           2.8223    1.6915   -0.8223 H       1  LIG1        0.0000
     48 H           5.2670    1.0759   -1.3802 H       1  LIG1        0.0000
     49 H           6.6401   -0.3149   -2.7667 H       1  LIG1        0.0000
     50 H           5.7298   -2.2956   -3.7442 H       1  LIG1        0.0000
     51 H           3.4532   -2.8977   -3.3454 H       1  LIG1        0.0000
     52 H           2.0726   -1.5110   -1.9615 H       1  LIG1        0.0000
@<TRIPOS>BOND
     1     1     2    1
     2     2     3    1
     3     3     4    1
     4     4     5    2
     5     5     6    1
     6     6     7   ar
     7     7     8   ar
     8     8     9   ar
     9     9    10   ar
    10    10    11   ar
    11    11     6   ar
    12    11    12    1
    13    12    13    2
    14    13    14    1
    15    14    15    1
    16    15    16   ar
    17    16    17   ar
    18    17    18   ar
    19    18    19   ar
    20    19    20   ar
    21    20    15   ar
    22    14    21    1
    23    21    22    2
    24    21    23   am
    25    23     4    1
    26    23    12    1
    27     2    24    1
    28    24    25    2
    29    24    26   am
    30    26    27    1
    31    27    28   ar
    32    28    29   ar
    33    29    30   ar
    34    30    31   ar
    35    31    32   ar
    36    32    27   ar
    37     2    33    1
    38    14    34    1
    39     1    35    1
    40     1    36    1
    41     1    37    1
    42     7    38    1
    43     8    39    1
    44     9    40    1
    45    10    41    1
    46    16    42    1
    47    17    43    1
    48    18    44    1
    49    19    45    1
    50    20    46    1
    51    26    47    1
    52    28    48    1
    53    29    49    1
    54    30    50    1
    55    31    51    1
    56    32    52    1
