@<TRIPOS>MOLECULE
*****
 52 56 0 0 0
SMALL
USER_CHARGES

@<TRIPOS>ATOM
      1 C1          0.1224    0.1224    1.8776 C.3     1  LIG1        0.0000
      2 C2          1.0000    1.0000    1.0000 C.3     1  LIG1        0.0000
      3 S3         -0.0450    2.0450   -0.0450 S.3     1  LIG1        0.0000
      4 C4         -0.7388    0.8980   -1.1561 C.2     1  LIG1        0.0000
      5 N5          0.1065    0.0814   -1.7528 N.2     1  LIG1        0.0000
      6 C6         -0.3211   -0.8625   -2.6499 C.3     1  LIG1        0.0000
      7 C7          0.5799   -1.7164   -3.2776 C.3     1  LIG1        0.0000
      8 C8          0.1402   -2.6710   -4.1893 C.3     1  LIG1        0.0000
      9 C9         -1.2143   -2.7805   -4.4827 C.3     1  LIG1        0.0000
     10 C10        -2.1233   -1.9315   -3.8607 C.3     1  LIG1        0.0000
     11 C11        -1.6741   -0.9811   -2.9497 C.3     1  LIG1        0.0000
     12 C12        -2.5846   -0.1099   -2.3045 C.2     1  LIG1        0.0000
     13 N13        -3.8467   -0.0708   -2.4274 N.2     1  LIG1        0.0000
     14 C14        -4.4059    0.9869   -1.5764 C.3     1  LIG1        0.0000
     15 C15        -5.0248    2.0352   -2.4869 C.3     1  LIG1        0.0000
     16 C16        -4.2873    2.5446   -3.5506 C.3     1  LIG1        0.0000
     17 C17        -4.8611    3.5040   -4.3783 C.3     1  LIG1        0.0000
     18 C18        -6.1593    3.9440   -4.1385 C.3     1  LIG1        0.0000
     19 C19        -6.8897    3.4288   -3.0725 C.3     1  LIG1        0.0000
     20 C20        -6.3230    2.4694   -2.2394 C.3     1  LIG1        0.0000
     21 C21        -3.1578    1.5590   -0.9397 C.2     1  LIG1        0.0000
     22 O22        -3.1514    2.4864   -0.1498 O.2     1  LIG1        0.0000
     23 N23        -2.0874    0.8104   -1.4324 N.am    1  LIG1        0.0000
     24 C24         1.8776    0.1224    0.1224 C.2     1  LIG1        0.0000
     25 O25         2.6482    0.6245   -0.6482 O.2     1  LIG1        0.0000
     26 N26         1.7887   -1.2418    0.2113 N.am    1  LIG1        0.0000
     27 C27         2.0540   -2.0353   -0.9115 C.3     1  LIG1        0.0000
     28 C28         1.2644   -3.1515   -1.1676 C.3     1  LIG1        0.0000
     29 C29         1.5356   -3.9345   -2.2848 C.3     1  LIG1        0.0000
     30 C30         2.5868   -3.5981   -3.1323 C.3     1  LIG1        0.0000
     31 C31         3.3711   -2.4799   -2.8686 C.3     1  LIG1        0.0000
     32 C32         3.1071   -1.6917   -1.7529 C.3     1  LIG1        0.0000
     33 H           1.5774    1.5774    1.5774 H       1  LIG1        0.0000
     34 H          -5.0539    0.6340   -0.9014 H       1  LIG1        0.0000
     35 H           0.6998   -0.4549    2.4549 H       1  LIG1        0.0000
     36 H          -0.4549    0.6998    2.4549 H       1  LIG1        0.0000
     37 H          -0.4549   -0.4549    1.3002 H       1  LIG1        0.0000
     38 H           1.5556   -1.6433   -3.0711 H       1  LIG1        0.0000
     39 H           0.7987   -3.2784   -4.6336 H       1  LIG1        0.0000
     40 H          -1.5331   -3.4660   -5.1373 H       1  LIG1        0.0000
     41 H          -3.0988   -2.0042   -4.0681 H       1  LIG1        0.0000
     42 H          -3.3549    2.2246   -3.7184 H       1  LIG1        0.0000
     43 H          -4.3405    3.8777   -5.1460 H       1  LIG1        0.0000
     44 H          -6.5692    4.6338   -4.7353 H       1  LIG1        0.0000
     45 H          -7.8224    3.7482   -2.9050 H       1  LIG1        0.0000
     46 H          -6.8431    2.0961   -1.4713 H       1  LIG1        0.0000
     47 H           1.5343   -1.6709    1.0780 H       1  LIG1        0.0000
     48 H           0.5101   -3.3884   -0.5553 H       1  LIG1        0.0000
     49 H           0.9749   -4.7394   -2.4790 H       1  LIG1        0.0000
     50 H           2.7793   -4.1629   -3.9347 H       1  LIG1        0.0000
     51 H           4.1250   -2.2424   -3.4812 H       1  LIG1        0.0000
     52 H           3.6681   -0.8872   -1.5580 H       1  LIG1        0.0000
@<TRIPOS>BOND
     1     1     2    1
     2     2     3    1
     3     3     4    1
     4     4     5    2
     5     5     6    1
     6     6     7   ar
     7     7     8   ar
     8     8     9   ar
     9     9    10   ar
    10    10    11   ar
    11    11     6   ar
    12    11    12    1
    13    12    13    2
    14    13    14    1
    15    14    15    1
    16    15    16   ar
    17    16    17   ar
    18    17    18   ar
    19    18    19   ar
    20    19    20   ar
    21    20    15   ar
    22    14    21    1
    23    21    22    2
    24    21    23   am
    25    23     4    1
    26    23    12    1
    27     2    24    1
    28    24    25    2
    29    24    26   am
    30    26    27    1
    31    27    28   ar
    32    28    29   ar
    33    29    30   ar
    34    30    31   ar
    35    31    32   ar
    36    32    27   ar
    37     2    33    1
    38    14    34    1
    39     1    35    1
    40     1    36    1
    41     1    37    1
    42     7    38    1
    43     8    39    1
    44     9    40    1
    45    10    41    1
    46    16    42    1
    47    17    43    1
    48    18    44    1
    49    19    45    1
    50    20    46    1
    51    26    47    1
    52    28    48    1
    53    29    49    1
    54    30    50    1
    55    31    51    1
    56    32    52    1
