@<TRIPOS>MOLECULE
*****
 52 56 0 0 0
SMALL
USER_CHARGES

@<TRIPOS>ATOM
      1 C1          0.1224    0.1224    1.8776 C.3     1  LIG1        0.0000
      2 C2          1.0000    1.0000    1.0000 C.3     1  LIG1        0.0000
      3 S3         -0.0450    2.0450   -0.0450 S.3     1  LIG1        0.0000
      4 C4         -1.4658    1.0628   -0.2643 C.2     1  LIG1        0.0000
      5 N5         -2.4235    1.2173    0.6281 N.2     1  LIG1        0.0000
      6 C6         -3.5880    0.4976    0.5616 C.3     1  LIG1        0.0000
      7 C7         -4.5906    0.6649    1.5112 C.3     1  LIG1        0.0000
      8 C8         -5.7694   -0.0704    1.4400 C.3     1  LIG1        0.0000
      9 C9         -5.9571   -0.9858    0.4107 C.3     1  LIG1        0.0000
     10 C10        -4.9608   -1.1609   -0.5437 C.3     1  LIG1        0.0000
     11 C11        -3.7861   -0.4201   -0.4646 C.3     1  LIG1        0.0000
     12 C12        -2.7618   -0.5825   -1.4284 C.2     1  LIG1        0.0000
     13 N13        -2.7574   -1.3477   -2.4403 N.2     1  LIG1        0.0000
     14 C14        -1.4954   -1.2060   -3.1770 C.3     1  LIG1        0.0000
     15 C15        -0.7588   -2.5333   -3.0933 C.3     1  LIG1        0.0000
     16 C16        -0.5855   -3.1473   -1.8572 C.3     1  LIG1        0.0000
     17 C17         0.0903   -4.3611   -1.7897 C.3     1  LIG1        0.0000
     18 C18         0.5844   -4.9486   -2.9504 C.3     1  LIG1        0.0000
     19 C19         0.4062   -4.3275   -4.1824 C.3     1  LIG1        0.0000
     20 C20        -0.2680   -3.1129   -4.2587 C.3     1  LIG1        0.0000
     21 C21        -0.7646   -0.1806   -2.3374 C.2     1  LIG1        0.0000
     22 O22         0.3537    0.2372   -2.5804 O.2     1  LIG1        0.0000
     23 N23        -1.6274    0.1589   -1.2936 N.am    1  LIG1        0.0000
     24 C24         1.8776    0.1224    0.1224 C.2     1  LIG1        0.0000
     25 O25         3.0725    0.2003    0.2003 O.2     1  LIG1        0.0000
     26 N26         1.3043   -0.7574   -0.7574 N.am    1  LIG1        0.0000
     27 C27         2.0463   -1.2510   -1.8375 C.3     1  LIG1        0.0000
     28 C28         2.2593   -2.6203   -1.9578 C.3     1  LIG1        0.0000
     29 C29         2.9982   -3.1016   -3.0335 C.3     1  LIG1        0.0000
     30 C30         3.5150   -2.2167   -3.9749 C.3     1  LIG1        0.0000
     31 C31         3.2968   -0.8488   -3.8468 C.3     1  LIG1        0.0000
     32 C32         2.5594   -0.3589   -2.7735 C.3     1  LIG1        0.0000
     33 H           1.5774    1.5774    1.5774 H       1  LIG1        0.0000
     34 H          -1.6333   -0.9024   -4.1197 H       1  LIG1        0.0000
     35 H           0.6998   -0.4549    2.4549 H       1  LIG1        0.0000
     36 H          -0.4549    0.6998    2.4549 H       1  LIG1        0.0000
     37 H          -0.4549   -0.4549    1.3002 H       1  LIG1        0.0000
     38 H          -4.4624    1.3219    2.2542 H       1  LIG1        0.0000
     39 H          -6.4821    0.0596    2.1294 H       1  LIG1        0.0000
     40 H          -6.8036   -1.5154    0.3569 H       1  LIG1        0.0000
     41 H          -5.0888   -1.8186   -1.2860 H       1  LIG1        0.0000
     42 H          -0.9428   -2.7208   -1.0263 H       1  LIG1        0.0000
     43 H           0.2212   -4.8119   -0.9067 H       1  LIG1        0.0000
     44 H           1.0698   -5.8213   -2.8987 H       1  LIG1        0.0000
     45 H           0.7629   -4.7543   -5.0134 H       1  LIG1        0.0000
     46 H          -0.3984   -2.6617   -5.1415 H       1  LIG1        0.0000
     47 H           0.3560   -1.0472   -0.6283 H       1  LIG1        0.0000
     48 H           1.8854   -3.2517   -1.2785 H       1  LIG1        0.0000
     49 H           3.1581   -4.0840   -3.1304 H       1  LIG1        0.0000
     50 H           4.0458   -2.5657   -4.7472 H       1  LIG1        0.0000
     51 H           3.6701   -0.2173   -4.5264 H       1  LIG1        0.0000
     52 H           2.4001    0.6235   -2.6760 H       1  LIG1        0.0000
@<TRIPOS>BOND
     1     1     2    1
     2     2     3    1
     3     3     4    1
     4     4     5    2
     5     5     6    1
     6     6     7   ar
     7     7     8   ar
     8     8     9   ar
     9     9    10   ar
    10    10    11   ar
    11    11     6   ar
    12    11    12    1
    13    12    13    2
    14    13    14    1
    15    14    15    1
    16    15    16   ar
    17    16    17   ar
    18    17    18   ar
    19    18    19   ar
    20    19    20   ar
    21    20    15   ar
    22    14    21    1
    23    21    22    2
    24    21    23   am
    25    23     4    1
    26    23    12    1
    27     2    24    1
    28    24    25    2
    29    24    26   am
    30    26    27    1
    31    27    28   ar
    32    28    29   ar
    33    29    30   ar
    34    30    31   ar
    35    31    32   ar
    36    32    27   ar
    37     2    33    1
    38    14    34    1
    39     1    35    1
    40     1    36    1
    41     1    37    1
    42     7    38    1
    43     8    39    1
    44     9    40    1
    45    10    41    1
    46    16    42    1
    47    17    43    1
    48    18    44    1
    49    19    45    1
    50    20    46    1
    51    26    47    1
    52    28    48    1
    53    29    49    1
    54    30    50    1
    55    31    51    1
    56    32    52    1
