@<TRIPOS>MOLECULE
*****
 52 56 0 0 0
SMALL
USER_CHARGES

@<TRIPOS>ATOM
      1 C1          0.1224    0.1224    1.8776 C.3     1  LIG1        0.0000
      2 C2          1.0000    1.0000    1.0000 C.3     1  LIG1        0.0000
      3 S3         -0.0450    2.0450   -0.0450 S.3     1  LIG1        0.0000
      4 C4          1.1020    3.1561   -0.7388 C.2     1  LIG1        0.0000
      5 N5          1.6531    2.7877   -1.8781 N.2     1  LIG1        0.0000
      6 C6          2.5721    3.5777   -2.5182 C.3     1  LIG1        0.0000
      7 C7          3.1511    3.1774   -3.7180 C.3     1  LIG1        0.0000
      8 C8          4.0854    3.9825   -4.3619 C.3     1  LIG1        0.0000
      9 C9          4.4507    5.2039   -3.8074 C.3     1  LIG1        0.0000
     10 C10         3.8779    5.6133   -2.6082 C.3     1  LIG1        0.0000
     11 C11         2.9438    4.8018   -1.9725 C.3     1  LIG1        0.0000
     12 C12         2.3478    5.2030   -0.7526 C.2     1  LIG1        0.0000
     13 N13         2.5379    6.2794   -0.1086 N.2     1  LIG1        0.0000
     14 C14         1.7175    6.2928    1.1089 C.3     1  LIG1        0.0000
     15 C15         2.6595    6.2804    2.3022 C.3     1  LIG1        0.0000
     16 C16         2.3705    7.0631    3.4152 C.3     1  LIG1        0.0000
     17 C17         3.2381    7.0462    4.5022 C.3     1  LIG1        0.0000
     18 C18         4.3804    6.2522    4.4691 C.3     1  LIG1        0.0000
     19 C19         4.6614    5.4724    3.3520 C.3     1  LIG1        0.0000
     20 C20         3.7992    5.4840    2.2601 C.3     1  LIG1        0.0000
     21 C21         1.0149    4.9554    1.0191 C.2     1  LIG1        0.0000
     22 O22         0.2254    4.5359    1.8466 O.2     1  LIG1        0.0000
     23 N23         1.4501    4.3624   -0.1675 N.am    1  LIG1        0.0000
     24 C24         1.8776    0.1224    0.1224 C.2     1  LIG1        0.0000
     25 O25         1.7997   -1.0725    0.2003 O.2     1  LIG1        0.0000
     26 N26         2.7574    0.6957   -0.7574 N.am    1  LIG1        0.0000
     27 C27         3.5659   -0.1128   -1.5659 C.3     1  LIG1        0.0000
     28 C28         4.8907    0.2459   -1.7919 C.3     1  LIG1        0.0000
     29 C29         5.6863   -0.5627   -2.5968 C.3     1  LIG1        0.0000
     30 C30         5.1554   -1.7163   -3.1659 C.3     1  LIG1        0.0000
     31 C31         3.8295   -2.0674   -2.9343 C.3     1  LIG1        0.0000
     32 C32         3.0266   -1.2639   -2.1309 C.3     1  LIG1        0.0000
     33 H           1.5774    1.5774    1.5774 H       1  LIG1        0.0000
     34 H           1.0783    7.0615    1.1325 H       1  LIG1        0.0000
     35 H           0.6998   -0.4549    2.4549 H       1  LIG1        0.0000
     36 H          -0.4549    0.6998    2.4549 H       1  LIG1        0.0000
     37 H          -0.4549   -0.4549    1.3002 H       1  LIG1        0.0000
     38 H           2.8928    2.3002   -4.1226 H       1  LIG1        0.0000
     39 H           4.4942    3.6826   -5.2238 H       1  LIG1        0.0000
     40 H           5.1217    5.7847   -4.2683 H       1  LIG1        0.0000
     41 H           4.1371    6.4901   -2.2032 H       1  LIG1        0.0000
     42 H           1.5480    7.6316    3.4336 H       1  LIG1        0.0000
     43 H           3.0409    7.6049    5.3078 H       1  LIG1        0.0000
     44 H           5.0022    6.2421    5.2522 H       1  LIG1        0.0000
     45 H           5.4835    4.9033    3.3336 H       1  LIG1        0.0000
     46 H           3.9966    4.9259    1.4541 H       1  LIG1        0.0000
     47 H           2.8223    1.6915   -0.8223 H       1  LIG1        0.0000
     48 H           5.2670    1.0759   -1.3802 H       1  LIG1        0.0000
     49 H           6.6401   -0.3149   -2.7667 H       1  LIG1        0.0000
     50 H           5.7298   -2.2956   -3.7442 H       1  LIG1        0.0000
     51 H           3.4532   -2.8977   -3.3454 H       1  LIG1        0.0000
     52 H           2.0726   -1.5110   -1.9615 H       1  LIG1        0.0000
@<TRIPOS>BOND
     1     1     2    1
     2     2     3    1
     3     3     4    1
     4     4     5    2
     5     5     6    1
     6     6     7   ar
     7     7     8   ar
     8     8     9   ar
     9     9    10   ar
    10    10    11   ar
    11    11     6   ar
    12    11    12    1
    13    12    13    2
    14    13    14    1
    15    14    15    1
    16    15    16   ar
    17    16    17   ar
    18    17    18   ar
    19    18    19   ar
    20    19    20   ar
    21    20    15   ar
    22    14    21    1
    23    21    22    2
    24    21    23   am
    25    23     4    1
    26    23    12    1
    27     2    24    1
    28    24    25    2
    29    24    26   am
    30    26    27    1
    31    27    28   ar
    32    28    29   ar
    33    29    30   ar
    34    30    31   ar
    35    31    32   ar
    36    32    27   ar
    37     2    33    1
    38    14    34    1
    39     1    35    1
    40     1    36    1
    41     1    37    1
    42     7    38    1
    43     8    39    1
    44     9    40    1
    45    10    41    1
    46    16    42    1
    47    17    43    1
    48    18    44    1
    49    19    45    1
    50    20    46    1
    51    26    47    1
    52    28    48    1
    53    29    49    1
    54    30    50    1
    55    31    51    1
    56    32    52    1
