@<TRIPOS>MOLECULE
*****
 52 56 0 0 0
SMALL
USER_CHARGES

@<TRIPOS>ATOM
      1 C1          0.1224    0.1224    1.8776 C.3     1  LIG1        0.0000
      2 C2          1.0000    1.0000    1.0000 C.3     1  LIG1        0.0000
      3 S3         -0.0450    2.0450   -0.0450 S.3     1  LIG1        0.0000
      4 C4          0.9372    2.2643   -1.4658 C.2     1  LIG1        0.0000
      5 N5          0.3500    2.0262   -2.6216 N.2     1  LIG1        0.0000
      6 C6          1.0221    2.1620   -3.8084 C.3     1  LIG1        0.0000
      7 C7          0.3943    1.9037   -5.0225 C.3     1  LIG1        0.0000
      8 C8          1.0824    2.0409   -6.2239 C.3     1  LIG1        0.0000
      9 C9          2.4139    2.4408   -6.2210 C.3     1  LIG1        0.0000
     10 C10         3.0509    2.7013   -5.0125 C.3     1  LIG1        0.0000
     11 C11         2.3540    2.5625   -3.8167 C.3     1  LIG1        0.0000
     12 C12         2.9847    2.8259   -2.5768 C.2     1  LIG1        0.0000
     13 N13         4.1753    3.2144   -2.3745 N.2     1  LIG1        0.0000
     14 C14         4.4212    3.3655   -0.9350 C.3     1  LIG1        0.0000
     15 C15         5.4717    2.3421   -0.5346 C.3     1  LIG1        0.0000
     16 C16         5.3448    1.6614    0.6718 C.3     1  LIG1        0.0000
     17 C17         6.3109    0.7273    1.0305 C.3     1  LIG1        0.0000
     18 C18         7.3894    0.4818    0.1862 C.3     1  LIG1        0.0000
     19 C19         7.5082    1.1669   -1.0186 C.3     1  LIG1        0.0000
     20 C20         6.5466    2.1033   -1.3847 C.3     1  LIG1        0.0000
     21 C21         3.0854    2.9574   -0.3521 C.2     1  LIG1        0.0000
     22 O22         2.8359    2.9243    0.8399 O.2     1  LIG1        0.0000
     23 N23         2.2583    2.6600   -1.4368 N.am    1  LIG1        0.0000
     24 C24         1.8776    0.1224    0.1224 C.2     1  LIG1        0.0000
     25 O25         1.3755   -0.6482   -0.6482 O.2     1  LIG1        0.0000
     26 N26         3.2418    0.2113    0.2113 N.am    1  LIG1        0.0000
     27 C27         4.0353   -0.0540   -0.9115 C.3     1  LIG1        0.0000
     28 C28         5.2228   -0.7631   -0.7631 C.3     1  LIG1        0.0000
     29 C29         6.0051   -1.0215   -1.8837 C.3     1  LIG1        0.0000
     30 C30         5.5974   -0.5724   -3.1362 C.3     1  LIG1        0.0000
     31 C31         4.4082    0.1358   -3.2753 C.3     1  LIG1        0.0000
     32 C32         3.6201    0.3991   -2.1594 C.3     1  LIG1        0.0000
     33 H           1.5774    1.5774    1.5774 H       1  LIG1        0.0000
     34 H           4.6798    4.2987   -0.6856 H       1  LIG1        0.0000
     35 H           0.6998   -0.4549    2.4549 H       1  LIG1        0.0000
     36 H          -0.4549    0.6998    2.4549 H       1  LIG1        0.0000
     37 H          -0.4549   -0.4549    1.3002 H       1  LIG1        0.0000
     38 H          -0.5633    1.6159   -5.0320 H       1  LIG1        0.0000
     39 H           0.6192    1.8518   -7.0897 H       1  LIG1        0.0000
     40 H           2.9108    2.5406   -7.0831 H       1  LIG1        0.0000
     41 H           4.0088    2.9882   -5.0033 H       1  LIG1        0.0000
     42 H           4.5675    1.8417    1.2746 H       1  LIG1        0.0000
     43 H           6.2304    0.2320    1.8955 H       1  LIG1        0.0000
     44 H           8.0824   -0.1904    0.4468 H       1  LIG1        0.0000
     45 H           8.2851    0.9862   -1.6218 H       1  LIG1        0.0000
     46 H           6.6273    2.5993   -2.2493 H       1  LIG1        0.0000
     47 H           3.6709    0.4657    1.0780 H       1  LIG1        0.0000
     48 H           5.5108   -1.0836    0.1393 H       1  LIG1        0.0000
     49 H           6.8609   -1.5301   -1.7894 H       1  LIG1        0.0000
     50 H           6.1620   -0.7597   -3.9400 H       1  LIG1        0.0000
     51 H           4.1197    0.4557   -4.1777 H       1  LIG1        0.0000
     52 H           2.7646    0.9083   -2.2534 H       1  LIG1        0.0000
@<TRIPOS>BOND
     1     1     2    1
     2     2     3    1
     3     3     4    1
     4     4     5    2
     5     5     6    1
     6     6     7   ar
     7     7     8   ar
     8     8     9   ar
     9     9    10   ar
    10    10    11   ar
    11    11     6   ar
    12    11    12    1
    13    12    13    2
    14    13    14    1
    15    14    15    1
    16    15    16   ar
    17    16    17   ar
    18    17    18   ar
    19    18    19   ar
    20    19    20   ar
    21    20    15   ar
    22    14    21    1
    23    21    22    2
    24    21    23   am
    25    23     4    1
    26    23    12    1
    27     2    24    1
    28    24    25    2
    29    24    26   am
    30    26    27    1
    31    27    28   ar
    32    28    29   ar
    33    29    30   ar
    34    30    31   ar
    35    31    32   ar
    36    32    27   ar
    37     2    33    1
    38    14    34    1
    39     1    35    1
    40     1    36    1
    41     1    37    1
    42     7    38    1
    43     8    39    1
    44     9    40    1
    45    10    41    1
    46    16    42    1
    47    17    43    1
    48    18    44    1
    49    19    45    1
    50    20    46    1
    51    26    47    1
    52    28    48    1
    53    29    49    1
    54    30    50    1
    55    31    51    1
    56    32    52    1
