@<TRIPOS>MOLECULE
*****
 52 56 0 0 0
SMALL
USER_CHARGES

@<TRIPOS>ATOM
      1 C1          0.1224    0.1224    1.8776 C.3     1  LIG1        0.0000
      2 C2          1.0000    1.0000    1.0000 C.3     1  LIG1        0.0000
      3 S3         -0.0450    2.0450   -0.0450 S.3     1  LIG1        0.0000
      4 C4         -1.1561    0.8980   -0.7388 C.2     1  LIG1        0.0000
      5 N5         -0.7755   -0.3639   -0.7225 N.2     1  LIG1        0.0000
      6 C6         -1.5642   -1.3571   -1.2420 C.3     1  LIG1        0.0000
      7 C7         -1.1511   -2.6853   -1.2240 C.3     1  LIG1        0.0000
      8 C8         -1.9549   -3.6889   -1.7551 C.3     1  LIG1        0.0000
      9 C9         -3.1881   -3.3703   -2.3124 C.3     1  LIG1        0.0000
     10 C10        -3.6104   -2.0455   -2.3356 C.3     1  LIG1        0.0000
     11 C11        -2.8000   -1.0493   -1.8010 C.3     1  LIG1        0.0000
     12 C12        -3.2142    0.3045   -1.8130 C.2     1  LIG1        0.0000
     13 N13        -4.3021    0.7833   -2.2565 N.2     1  LIG1        0.0000
     14 C14        -4.3265    2.2398   -2.0731 C.3     1  LIG1        0.0000
     15 C15        -4.3412    2.8800   -3.4519 C.3     1  LIG1        0.0000
     16 C16        -3.4109    2.4809   -4.4059 C.3     1  LIG1        0.0000
     17 C17        -3.4311    3.0724   -5.6646 C.3     1  LIG1        0.0000
     18 C18        -4.3750    4.0517   -5.9587 C.3     1  LIG1        0.0000
     19 C19        -5.3019    4.4444   -4.9986 C.3     1  LIG1        0.0000
     20 C20        -5.2882    3.8583   -3.7369 C.3     1  LIG1        0.0000
     21 C21        -2.9813    2.4891   -1.4260 C.2     1  LIG1        0.0000
     22 O22        -2.5670    3.5877   -1.1009 O.2     1  LIG1        0.0000
     23 N23        -2.3743    1.2395   -1.2885 N.am    1  LIG1        0.0000
     24 C24         1.8776    0.1224    0.1224 C.2     1  LIG1        0.0000
     25 O25         1.3755   -0.6482   -0.6482 O.2     1  LIG1        0.0000
     26 N26         3.2418    0.2113    0.2113 N.am    1  LIG1        0.0000
     27 C27         4.0353   -0.0540   -0.9115 C.3     1  LIG1        0.0000
     28 C28         5.4198    0.0384   -0.8132 C.3     1  LIG1        0.0000
     29 C29         6.2002   -0.2262   -1.9338 C.3     1  LIG1        0.0000
     30 C30         5.5951   -0.5791   -3.1362 C.3     1  LIG1        0.0000
     31 C31         4.2098   -0.6693   -3.2253 C.3     1  LIG1        0.0000
     32 C32         3.4218   -0.4057   -2.1094 C.3     1  LIG1        0.0000
     33 H           1.5774    1.5774    1.5774 H       1  LIG1        0.0000
     34 H          -5.0893    2.5419   -1.5014 H       1  LIG1        0.0000
     35 H           0.6998   -0.4549    2.4549 H       1  LIG1        0.0000
     36 H          -0.4549    0.6998    2.4549 H       1  LIG1        0.0000
     37 H          -0.4549   -0.4549    1.3002 H       1  LIG1        0.0000
     38 H          -0.2653   -2.9216   -0.8244 H       1  LIG1        0.0000
     39 H          -1.6457   -4.6396   -1.7359 H       1  LIG1        0.0000
     40 H          -3.7681   -4.0898   -2.6945 H       1  LIG1        0.0000
     41 H          -4.4957   -1.8093   -2.7361 H       1  LIG1        0.0000
     42 H          -2.7349    1.7766   -4.1891 H       1  LIG1        0.0000
     43 H          -2.7670    2.7939   -6.3584 H       1  LIG1        0.0000
     44 H          -4.3871    4.4751   -6.8645 H       1  LIG1        0.0000
     45 H          -5.9783    5.1483   -5.2154 H       1  LIG1        0.0000
     46 H          -5.9516    4.1373   -3.0426 H       1  LIG1        0.0000
     47 H           3.6709    0.4657    1.0780 H       1  LIG1        0.0000
     48 H           5.8493    0.2922    0.0534 H       1  LIG1        0.0000
     49 H           7.1965   -0.1627   -1.8753 H       1  LIG1        0.0000
     50 H           6.1588   -0.7687   -3.9401 H       1  LIG1        0.0000
     51 H           3.7802   -0.9238   -4.0917 H       1  LIG1        0.0000
     52 H           2.4255   -0.4683   -2.1678 H       1  LIG1        0.0000
@<TRIPOS>BOND
     1     1     2    1
     2     2     3    1
     3     3     4    1
     4     4     5    2
     5     5     6    1
     6     6     7   ar
     7     7     8   ar
     8     8     9   ar
     9     9    10   ar
    10    10    11   ar
    11    11     6   ar
    12    11    12    1
    13    12    13    2
    14    13    14    1
    15    14    15    1
    16    15    16   ar
    17    16    17   ar
    18    17    18   ar
    19    18    19   ar
    20    19    20   ar
    21    20    15   ar
    22    14    21    1
    23    21    22    2
    24    21    23   am
    25    23     4    1
    26    23    12    1
    27     2    24    1
    28    24    25    2
    29    24    26   am
    30    26    27    1
    31    27    28   ar
    32    28    29   ar
    33    29    30   ar
    34    30    31   ar
    35    31    32   ar
    36    32    27   ar
    37     2    33    1
    38    14    34    1
    39     1    35    1
    40     1    36    1
    41     1    37    1
    42     7    38    1
    43     8    39    1
    44     9    40    1
    45    10    41    1
    46    16    42    1
    47    17    43    1
    48    18    44    1
    49    19    45    1
    50    20    46    1
    51    26    47    1
    52    28    48    1
    53    29    49    1
    54    30    50    1
    55    31    51    1
    56    32    52    1
