@<TRIPOS>MOLECULE
*****
 52 56 0 0 0
SMALL
USER_CHARGES

@<TRIPOS>ATOM
      1 C1          0.1224    0.1224    1.8776 C.3     1  LIG1        0.0000
      2 C2          1.0000    1.0000    1.0000 C.3     1  LIG1        0.0000
      3 S3         -0.0450    2.0450   -0.0450 S.3     1  LIG1        0.0000
      4 C4          1.1020    3.1561   -0.7388 C.2     1  LIG1        0.0000
      5 N5          2.2491    3.2815   -0.1018 N.2     1  LIG1        0.0000
      6 C6          3.2294    4.1278   -0.5507 C.3     1  LIG1        0.0000
      7 C7          4.4347    4.2562    0.1317 C.3     1  LIG1        0.0000
      8 C8          5.4250    5.1188   -0.3273 C.3     1  LIG1        0.0000
      9 C9          5.2168    5.8656   -1.4813 C.3     1  LIG1        0.0000
     10 C10         4.0151    5.7447   -2.1708 C.3     1  LIG1        0.0000
     11 C11         3.0315    4.8787   -1.7046 C.3     1  LIG1        0.0000
     12 C12         1.8030    4.7401   -2.3945 C.2     1  LIG1        0.0000
     13 N13         1.4399    5.3176   -3.4642 N.2     1  LIG1        0.0000
     14 C14         0.0862    4.8885   -3.8370 C.3     1  LIG1        0.0000
     15 C15        -0.8256    6.1016   -3.7459 C.3     1  LIG1        0.0000
     16 C16        -1.8061    6.2996   -4.7125 C.3     1  LIG1        0.0000
     17 C17        -2.6356    7.4124   -4.6218 C.3     1  LIG1        0.0000
     18 C18        -2.4801    8.3131   -3.5725 C.3     1  LIG1        0.0000
     19 C19        -1.4970    8.1070   -2.6101 C.3     1  LIG1        0.0000
     20 C20        -0.6627    6.9968   -2.6937 C.3     1  LIG1        0.0000
     21 C21        -0.2510    3.9306   -2.7149 C.2     1  LIG1        0.0000
     22 O22        -1.3081    3.3336   -2.6140 O.2     1  LIG1        0.0000
     23 N23         0.8707    3.8881   -1.8848 N.am    1  LIG1        0.0000
     24 C24         1.8776    0.1224    0.1224 C.2     1  LIG1        0.0000
     25 O25         1.7997   -1.0725    0.2003 O.2     1  LIG1        0.0000
     26 N26         2.7574    0.6957   -0.7574 N.am    1  LIG1        0.0000
     27 C27         3.5659   -0.1128   -1.5659 C.3     1  LIG1        0.0000
     28 C28         4.8907    0.2459   -1.7919 C.3     1  LIG1        0.0000
     29 C29         5.6863   -0.5627   -2.5968 C.3     1  LIG1        0.0000
     30 C30         5.1554   -1.7163   -3.1659 C.3     1  LIG1        0.0000
     31 C31         3.8295   -2.0674   -2.9343 C.3     1  LIG1        0.0000
     32 C32         3.0266   -1.2639   -2.1309 C.3     1  LIG1        0.0000
     33 H           1.5774    1.5774    1.5774 H       1  LIG1        0.0000
     34 H           0.0559    4.4522   -4.7363 H       1  LIG1        0.0000
     35 H           0.6998   -0.4549    2.4549 H       1  LIG1        0.0000
     36 H          -0.4549    0.6998    2.4549 H       1  LIG1        0.0000
     37 H          -0.4549   -0.4549    1.3002 H       1  LIG1        0.0000
     38 H           4.5914    3.7219    0.9623 H       1  LIG1        0.0000
     39 H           6.2869    5.2018    0.1729 H       1  LIG1        0.0000
     40 H           5.9270    6.4861   -1.8137 H       1  LIG1        0.0000
     41 H           3.8583    6.2798   -3.0009 H       1  LIG1        0.0000
     42 H          -1.9135    5.6490   -5.4643 H       1  LIG1        0.0000
     43 H          -3.3439    7.5653   -5.3110 H       1  LIG1        0.0000
     44 H          -3.0779    9.1122   -3.5100 H       1  LIG1        0.0000
     45 H          -1.3899    8.7572   -1.8579 H       1  LIG1        0.0000
     46 H           0.0461    6.8441   -2.0051 H       1  LIG1        0.0000
     47 H           2.8223    1.6915   -0.8223 H       1  LIG1        0.0000
     48 H           5.2670    1.0759   -1.3802 H       1  LIG1        0.0000
     49 H           6.6401   -0.3149   -2.7667 H       1  LIG1        0.0000
     50 H           5.7298   -2.2956   -3.7442 H       1  LIG1        0.0000
     51 H           3.4532   -2.8977   -3.3454 H       1  LIG1        0.0000
     52 H           2.0726   -1.5110   -1.9615 H       1  LIG1        0.0000
@<TRIPOS>BOND
     1     1     2    1
     2     2     3    1
     3     3     4    1
     4     4     5    2
     5     5     6    1
     6     6     7   ar
     7     7     8   ar
     8     8     9   ar
     9     9    10   ar
    10    10    11   ar
    11    11     6   ar
    12    11    12    1
    13    12    13    2
    14    13    14    1
    15    14    15    1
    16    15    16   ar
    17    16    17   ar
    18    17    18   ar
    19    18    19   ar
    20    19    20   ar
    21    20    15   ar
    22    14    21    1
    23    21    22    2
    24    21    23   am
    25    23     4    1
    26    23    12    1
    27     2    24    1
    28    24    25    2
    29    24    26   am
    30    26    27    1
    31    27    28   ar
    32    28    29   ar
    33    29    30   ar
    34    30    31   ar
    35    31    32   ar
    36    32    27   ar
    37     2    33    1
    38    14    34    1
    39     1    35    1
    40     1    36    1
    41     1    37    1
    42     7    38    1
    43     8    39    1
    44     9    40    1
    45    10    41    1
    46    16    42    1
    47    17    43    1
    48    18    44    1
    49    19    45    1
    50    20    46    1
    51    26    47    1
    52    28    48    1
    53    29    49    1
    54    30    50    1
    55    31    51    1
    56    32    52    1
