@<TRIPOS>MOLECULE

  23   24
SMALL
USER_CHARGES
@<TRIPOS>ATOM
   1 C1           6.5283     4.0148     1.0167 C.3          1    LIG   0.0000
   2 N2           5.1443     3.5176     1.0135 N.pl3        1    LIG   0.0000
   3 C3           4.0310     4.3066     1.0209 C.2          1    LIG   0.0000
   4 N4           2.9785     3.5191     1.0172 N.2          1    LIG   0.0000
   5 C5           3.4002     2.2183     1.0064 C.ar         1    LIG   0.0000
   6 C6           2.7393     1.0000     1.0000 C.ar         1    LIG   0.0000
   7 S7           1.0000     1.0000     1.0000 S.3          1    LIG   0.0000
   8 C8           0.6052     2.7664     1.0126 C.3          1    LIG   0.0000
   9 C9          -0.9039     2.9482     1.0140 C.3          1    LIG   0.0000
  10 F10         -1.3430     3.0011     2.2683 F            1    LIG   0.0000
  11 F11         -1.2147     4.0795     0.3874 F            1    LIG   0.0000
  12 F12         -1.4745     1.9232     0.3874 F            1    LIG   0.0000
  13 N13          3.4176    -0.1559     0.9917 N.ar         1    LIG   0.0000
  14 C14          4.7595    -0.1460     0.9923 C.ar         1    LIG   0.0000
  15 N15          5.4158     1.0237     0.9986 N.ar         1    LIG   0.0000
  16 C16          4.7764     2.2038     1.0062 C.ar         1    LIG   0.0000
  17 H            6.5232     5.0148     1.0222 H            1    LIG   0.0000
  18 H            7.0010     3.6794     1.8316 H            1    LIG   0.0000
  19 H            7.0017     3.6883     0.1986 H            1    LIG   0.0000
  20 H            4.0181     5.3065     1.0279 H            1    LIG   0.0000
  21 H            0.9925     3.2003     0.1992 H            1    LIG   0.0000
  22 H            0.9925     3.1886     1.8322 H            1    LIG   0.0000
  23 H            5.2679    -1.0071     0.9879 H            1    LIG   0.0000
@<TRIPOS>BOND
   1        1        2 1
   2        2        3 1
   3        3        4 2
   4        4        5 1
   5        5        6 ar
   6        6        7 1
   7        7        8 1
   8        8        9 1
   9        9       10 1
  10        9       11 1
  11        9       12 1
  12        6       13 ar
  13       13       14 ar
  14       14       15 ar
  15       15       16 ar
  16       16        5 ar
  17       16        2 1
  18        1       17 1
  19        1       18 1
  20        1       19 1
  21        3       20 1
  22        8       21 1
  23        8       22 1
  24       14       23 1

@<TRIPOS>MOLECULE

  23   24
SMALL
USER_CHARGES
@<TRIPOS>ATOM
   1 C1           6.5283    -2.0148     0.9833 C.3          1    LIG   0.0000
   2 N2           5.1443    -1.5176     0.9865 N.pl3        1    LIG   0.0000
   3 C3           4.0310    -2.3066     0.9791 C.2          1    LIG   0.0000
   4 N4           2.9785    -1.5191     0.9828 N.2          1    LIG   0.0000
   5 C5           3.4002    -0.2183     0.9936 C.ar         1    LIG   0.0000
   6 C6           2.7393     1.0000     1.0000 C.ar         1    LIG   0.0000
   7 S7           1.0000     1.0000     1.0000 S.3          1    LIG   0.0000
   8 C8           0.6052     2.7664     1.0126 C.3          1    LIG   0.0000
   9 C9          -0.9039     2.9482     1.0140 C.3          1    LIG   0.0000
  10 F10         -1.3430     3.0011     2.2683 F            1    LIG   0.0000
  11 F11         -1.2147     4.0795     0.3874 F            1    LIG   0.0000
  12 F12         -1.4745     1.9232     0.3874 F            1    LIG   0.0000
  13 N13          3.4176     2.1559     1.0083 N.ar         1    LIG   0.0000
  14 C14          4.7595     2.1460     1.0077 C.ar         1    LIG   0.0000
  15 N15          5.4158     0.9763     1.0014 N.ar         1    LIG   0.0000
  16 C16          4.7764    -0.2038     0.9938 C.ar         1    LIG   0.0000
  17 H            6.5232    -3.0148     0.9778 H            1    LIG   0.0000
  18 H            7.0010    -1.6794     0.1684 H            1    LIG   0.0000
  19 H            7.0017    -1.6883     1.8014 H            1    LIG   0.0000
  20 H            4.0181    -3.3065     0.9721 H            1    LIG   0.0000
  21 H            0.9925     3.2003     0.1992 H            1    LIG   0.0000
  22 H            0.9925     3.1886     1.8322 H            1    LIG   0.0000
  23 H            5.2679     3.0071     1.0121 H            1    LIG   0.0000
@<TRIPOS>BOND
   1        1        2 1
   2        2        3 1
   3        3        4 2
   4        4        5 1
   5        5        6 ar
   6        6        7 1
   7        7        8 1
   8        8        9 1
   9        9       10 1
  10        9       11 1
  11        9       12 1
  12        6       13 ar
  13       13       14 ar
  14       14       15 ar
  15       15       16 ar
  16       16        5 ar
  17       16        2 1
  18        1       17 1
  19        1       18 1
  20        1       19 1
  21        3       20 1
  22        8       21 1
  23        8       22 1
  24       14       23 1

@<TRIPOS>MOLECULE

  23   24
SMALL
USER_CHARGES
@<TRIPOS>ATOM
   1 C1           6.5283    -2.0148     0.9833 C.3          1    LIG   0.0000
   2 N2           5.1443    -1.5176     0.9865 N.pl3        1    LIG   0.0000
   3 C3           4.0310    -2.3066     0.9791 C.2          1    LIG   0.0000
   4 N4           2.9785    -1.5191     0.9828 N.2          1    LIG   0.0000
   5 C5           3.4002    -0.2183     0.9936 C.ar         1    LIG   0.0000
   6 C6           2.7393     1.0000     1.0000 C.ar         1    LIG   0.0000
   7 S7           1.0000     1.0000     1.0000 S.3          1    LIG   0.0000
   8 C8           0.6052     2.7664     1.0126 C.3          1    LIG   0.0000
   9 C9           0.9730     3.3581     2.3636 C.3          1    LIG   0.0000
  10 F10          2.2273     3.7988     2.3278 F            1    LIG   0.0000
  11 F11          0.1555     4.3696     2.6419 F            1    LIG   0.0000
  12 F12          0.8579     2.4237     3.3030 F            1    LIG   0.0000
  13 N13          3.4176     2.1559     1.0083 N.ar         1    LIG   0.0000
  14 C14          4.7595     2.1460     1.0077 C.ar         1    LIG   0.0000
  15 N15          5.4158     0.9763     1.0014 N.ar         1    LIG   0.0000
  16 C16          4.7764    -0.2038     0.9938 C.ar         1    LIG   0.0000
  17 H            6.5232    -3.0148     0.9778 H            1    LIG   0.0000
  18 H            7.0010    -1.6794     0.1684 H            1    LIG   0.0000
  19 H            7.0017    -1.6883     1.8014 H            1    LIG   0.0000
  20 H            4.0181    -3.3065     0.9721 H            1    LIG   0.0000
  21 H           -0.3737     2.8903     0.8498 H            1    LIG   0.0000
  22 H            1.1239     3.2290     0.2937 H            1    LIG   0.0000
  23 H            5.2679     3.0071     1.0121 H            1    LIG   0.0000
@<TRIPOS>BOND
   1        1        2 1
   2        2        3 1
   3        3        4 2
   4        4        5 1
   5        5        6 ar
   6        6        7 1
   7        7        8 1
   8        8        9 1
   9        9       10 1
  10        9       11 1
  11        9       12 1
  12        6       13 ar
  13       13       14 ar
  14       14       15 ar
  15       15       16 ar
  16       16        5 ar
  17       16        2 1
  18        1       17 1
  19        1       18 1
  20        1       19 1
  21        3       20 1
  22        8       21 1
  23        8       22 1
  24       14       23 1

@<TRIPOS>MOLECULE

  23   24
SMALL
USER_CHARGES
@<TRIPOS>ATOM
   1 C1           6.5283    -1.6193     2.4929 C.3          1    LIG   0.0000
   2 N2           5.1443    -1.1871     2.2471 N.pl3        1    LIG   0.0000
   3 C3           4.0310    -1.8740     2.6352 C.2          1    LIG   0.0000
   4 N4           2.9785    -1.1902     2.2447 N.2          1    LIG   0.0000
   5 C5           3.4002    -0.0583     1.6036 C.ar         1    LIG   0.0000
   6 C6           2.7393     1.0000     1.0000 C.ar         1    LIG   0.0000
   7 S7           1.0000     1.0000     1.0000 S.3          1    LIG   0.0000
   8 C8           0.6052     2.7664     1.0126 C.3          1    LIG   0.0000
   9 C9          -0.2046     3.0956     2.2561 C.3          1    LIG   0.0000
  10 F10          0.6185     3.4326     3.2449 F            1    LIG   0.0000
  11 F11         -1.0238     4.1106     1.9958 F            1    LIG   0.0000
  12 F12         -0.9173     2.0318     2.6156 F            1    LIG   0.0000
  13 N13          3.4176     2.0051     0.4292 N.ar         1    LIG   0.0000
  14 C14          4.7595     1.9964     0.4337 C.ar         1    LIG   0.0000
  15 N15          5.4158     0.9801     1.0131 N.ar         1    LIG   0.0000
  16 C16          4.7764    -0.0456     1.5965 C.ar         1    LIG   0.0000
  17 H            6.5232    -2.4880     2.9882 H            1    LIG   0.0000
  18 H            7.0010    -1.7363     1.6195 H            1    LIG   0.0000
  19 H            7.0017    -0.9275     3.0382 H            1    LIG   0.0000
  20 H            4.0181    -2.7435     3.1291 H            1    LIG   0.0000
  21 H            0.0724     2.9947     0.1978 H            1    LIG   0.0000
  22 H            1.4525     3.2973     1.0165 H            1    LIG   0.0000
  23 H            5.2679     2.7442     0.0069 H            1    LIG   0.0000
@<TRIPOS>BOND
   1        1        2 1
   2        2        3 1
   3        3        4 2
   4        4        5 1
   5        5        6 ar
   6        6        7 1
   7        7        8 1
   8        8        9 1
   9        9       10 1
  10        9       11 1
  11        9       12 1
  12        6       13 ar
  13       13       14 ar
  14       14       15 ar
  15       15       16 ar
  16       16        5 ar
  17       16        2 1
  18        1       17 1
  19        1       18 1
  20        1       19 1
  21        3       20 1
  22        8       21 1
  23        8       22 1
  24       14       23 1

@<TRIPOS>MOLECULE

  23   24
SMALL
USER_CHARGES
@<TRIPOS>ATOM
   1 C1           6.5283    -1.6193     2.4929 C.3          1    LIG   0.0000
   2 N2           5.1443    -1.1871     2.2471 N.pl3        1    LIG   0.0000
   3 C3           4.0310    -1.8740     2.6352 C.2          1    LIG   0.0000
   4 N4           2.9785    -1.1902     2.2447 N.2          1    LIG   0.0000
   5 C5           3.4002    -0.0583     1.6036 C.ar         1    LIG   0.0000
   6 C6           2.7393     1.0000     1.0000 C.ar         1    LIG   0.0000
   7 S7           1.0000     1.0000     1.0000 S.3          1    LIG   0.0000
   8 C8           0.6052     2.7664     1.0126 C.3          1    LIG   0.0000
   9 C9           0.0163     3.1635    -0.3312 C.3          1    LIG   0.0000
  10 F10         -1.3062     3.0277    -0.2933 F            1    LIG   0.0000
  11 F11          0.3245     4.4305    -0.5932 F            1    LIG   0.0000
  12 F12          0.5154     2.3799    -1.2829 F            1    LIG   0.0000
  13 N13          3.4176     2.0051     0.4292 N.ar         1    LIG   0.0000
  14 C14          4.7595     1.9964     0.4337 C.ar         1    LIG   0.0000
  15 N15          5.4158     0.9801     1.0131 N.ar         1    LIG   0.0000
  16 C16          4.7764    -0.0456     1.5965 C.ar         1    LIG   0.0000
  17 H            6.5232    -2.4880     2.9882 H            1    LIG   0.0000
  18 H            7.0010    -1.7363     1.6195 H            1    LIG   0.0000
  19 H            7.0017    -0.9275     3.0382 H            1    LIG   0.0000
  20 H            4.0181    -2.7435     3.1291 H            1    LIG   0.0000
  21 H            1.4386     3.2930     1.1801 H            1    LIG   0.0000
  22 H           -0.0590     2.9543     1.7362 H            1    LIG   0.0000
  23 H            5.2679     2.7442     0.0069 H            1    LIG   0.0000
@<TRIPOS>BOND
   1        1        2 1
   2        2        3 1
   3        3        4 2
   4        4        5 1
   5        5        6 ar
   6        6        7 1
   7        7        8 1
   8        8        9 1
   9        9       10 1
  10        9       11 1
  11        9       12 1
  12        6       13 ar
  13       13       14 ar
  14       14       15 ar
  15       15       16 ar
  16       16        5 ar
  17       16        2 1
  18        1       17 1
  19        1       18 1
  20        1       19 1
  21        3       20 1
  22        8       21 1
  23        8       22 1
  24       14       23 1

@<TRIPOS>MOLECULE

  23   24
SMALL
USER_CHARGES
@<TRIPOS>ATOM
   1 C1           6.5283     1.0167    -2.0148 C.3          1    LIG   0.0000
   2 N2           5.1443     1.0135    -1.5176 N.pl3        1    LIG   0.0000
   3 C3           4.0310     1.0209    -2.3066 C.2          1    LIG   0.0000
   4 N4           2.9785     1.0172    -1.5191 N.2          1    LIG   0.0000
   5 C5           3.4002     1.0064    -0.2183 C.ar         1    LIG   0.0000
   6 C6           2.7393     1.0000     1.0000 C.ar         1    LIG   0.0000
   7 S7           1.0000     1.0000     1.0000 S.3          1    LIG   0.0000
   8 C8           0.6052     2.7664     1.0126 C.3          1    LIG   0.0000
   9 C9          -0.9039     2.9482     1.0140 C.3          1    LIG   0.0000
  10 F10         -1.3430     3.0011     2.2683 F            1    LIG   0.0000
  11 F11         -1.2147     4.0795     0.3874 F            1    LIG   0.0000
  12 F12         -1.4745     1.9232     0.3874 F            1    LIG   0.0000
  13 N13          3.4176     0.9917     2.1559 N.ar         1    LIG   0.0000
  14 C14          4.7595     0.9923     2.1460 C.ar         1    LIG   0.0000
  15 N15          5.4158     0.9986     0.9763 N.ar         1    LIG   0.0000
  16 C16          4.7764     1.0062    -0.2038 C.ar         1    LIG   0.0000
  17 H            6.5232     1.0222    -3.0148 H            1    LIG   0.0000
  18 H            7.0010     1.8316    -1.6794 H            1    LIG   0.0000
  19 H            7.0017     0.1986    -1.6883 H            1    LIG   0.0000
  20 H            4.0181     1.0279    -3.3065 H            1    LIG   0.0000
  21 H            0.9925     3.2003     0.1992 H            1    LIG   0.0000
  22 H            0.9925     3.1886     1.8322 H            1    LIG   0.0000
  23 H            5.2679     0.9879     3.0071 H            1    LIG   0.0000
@<TRIPOS>BOND
   1        1        2 1
   2        2        3 1
   3        3        4 2
   4        4        5 1
   5        5        6 ar
   6        6        7 1
   7        7        8 1
   8        8        9 1
   9        9       10 1
  10        9       11 1
  11        9       12 1
  12        6       13 ar
  13       13       14 ar
  14       14       15 ar
  15       15       16 ar
  16       16        5 ar
  17       16        2 1
  18        1       17 1
  19        1       18 1
  20        1       19 1
  21        3       20 1
  22        8       21 1
  23        8       22 1
  24       14       23 1

@<TRIPOS>MOLECULE

  23   24
SMALL
USER_CHARGES
@<TRIPOS>ATOM
   1 C1           6.5283     1.0167    -2.0148 C.3          1    LIG   0.0000
   2 N2           5.1443     1.0135    -1.5176 N.pl3        1    LIG   0.0000
   3 C3           4.0310     1.0209    -2.3066 C.2          1    LIG   0.0000
   4 N4           2.9785     1.0172    -1.5191 N.2          1    LIG   0.0000
   5 C5           3.4002     1.0064    -0.2183 C.ar         1    LIG   0.0000
   6 C6           2.7393     1.0000     1.0000 C.ar         1    LIG   0.0000
   7 S7           1.0000     1.0000     1.0000 S.3          1    LIG   0.0000
   8 C8           0.6052     2.7664     1.0126 C.3          1    LIG   0.0000
   9 C9           0.9730     3.3581     2.3636 C.3          1    LIG   0.0000
  10 F10          2.2273     3.7988     2.3278 F            1    LIG   0.0000
  11 F11          0.1555     4.3696     2.6419 F            1    LIG   0.0000
  12 F12          0.8579     2.4237     3.3030 F            1    LIG   0.0000
  13 N13          3.4176     0.9917     2.1559 N.ar         1    LIG   0.0000
  14 C14          4.7595     0.9923     2.1460 C.ar         1    LIG   0.0000
  15 N15          5.4158     0.9986     0.9763 N.ar         1    LIG   0.0000
  16 C16          4.7764     1.0062    -0.2038 C.ar         1    LIG   0.0000
  17 H            6.5232     1.0222    -3.0148 H            1    LIG   0.0000
  18 H            7.0010     1.8316    -1.6794 H            1    LIG   0.0000
  19 H            7.0017     0.1986    -1.6883 H            1    LIG   0.0000
  20 H            4.0181     1.0279    -3.3065 H            1    LIG   0.0000
  21 H           -0.3737     2.8903     0.8498 H            1    LIG   0.0000
  22 H            1.1239     3.2290     0.2937 H            1    LIG   0.0000
  23 H            5.2679     0.9879     3.0071 H            1    LIG   0.0000
@<TRIPOS>BOND
   1        1        2 1
   2        2        3 1
   3        3        4 2
   4        4        5 1
   5        5        6 ar
   6        6        7 1
   7        7        8 1
   8        8        9 1
   9        9       10 1
  10        9       11 1
  11        9       12 1
  12        6       13 ar
  13       13       14 ar
  14       14       15 ar
  15       15       16 ar
  16       16        5 ar
  17       16        2 1
  18        1       17 1
  19        1       18 1
  20        1       19 1
  21        3       20 1
  22        8       21 1
  23        8       22 1
  24       14       23 1

@<TRIPOS>MOLECULE

  23   24
SMALL
USER_CHARGES
@<TRIPOS>ATOM
   1 C1           6.5283     2.9507    -1.2987 C.3          1    LIG   0.0000
   2 N2           5.1443     2.6286    -0.9199 N.pl3        1    LIG   0.0000
   3 C3           4.0310     3.1414    -1.5195 C.2          1    LIG   0.0000
   4 N4           2.9785     2.6324    -0.9187 N.2          1    LIG   0.0000
   5 C5           3.4002     1.7880     0.0709 C.ar         1    LIG   0.0000
   6 C6           2.7393     1.0000     1.0000 C.ar         1    LIG   0.0000
   7 S7           1.0000     1.0000     1.0000 S.3          1    LIG   0.0000
   8 C8           0.6052     2.7664     1.0126 C.3          1    LIG   0.0000
   9 C9          -0.2046     3.0956     2.2561 C.3          1    LIG   0.0000
  10 F10          0.6185     3.4326     3.2449 F            1    LIG   0.0000
  11 F11         -1.0238     4.1106     1.9958 F            1    LIG   0.0000
  12 F12         -0.9173     2.0318     2.6156 F            1    LIG   0.0000
  13 N13          3.4176     0.2507     1.8801 N.ar         1    LIG   0.0000
  14 C14          4.7595     0.2574     1.8729 C.ar         1    LIG   0.0000
  15 N15          5.4158     1.0142     0.9809 N.ar         1    LIG   0.0000
  16 C16          4.7764     1.7785     0.0819 C.ar         1    LIG   0.0000
  17 H            6.5232     3.5976    -2.0613 H            1    LIG   0.0000
  18 H            7.0010     3.3594    -0.5180 H            1    LIG   0.0000
  19 H            7.0017     2.1141    -1.5745 H            1    LIG   0.0000
  20 H            4.0181     3.7895    -2.2810 H            1    LIG   0.0000
  21 H            0.0724     2.9947     0.1978 H            1    LIG   0.0000
  22 H            1.4525     3.2973     1.0165 H            1    LIG   0.0000
  23 H            5.2679    -0.2994     2.5298 H            1    LIG   0.0000
@<TRIPOS>BOND
   1        1        2 1
   2        2        3 1
   3        3        4 2
   4        4        5 1
   5        5        6 ar
   6        6        7 1
   7        7        8 1
   8        8        9 1
   9        9       10 1
  10        9       11 1
  11        9       12 1
  12        6       13 ar
  13       13       14 ar
  14       14       15 ar
  15       15       16 ar
  16       16        5 ar
  17       16        2 1
  18        1       17 1
  19        1       18 1
  20        1       19 1
  21        3       20 1
  22        8       21 1
  23        8       22 1
  24       14       23 1

@<TRIPOS>MOLECULE

  23   24
SMALL
USER_CHARGES
@<TRIPOS>ATOM
   1 C1           6.5283     2.9507    -1.2987 C.3          1    LIG   0.0000
   2 N2           5.1443     2.6286    -0.9199 N.pl3        1    LIG   0.0000
   3 C3           4.0310     3.1414    -1.5195 C.2          1    LIG   0.0000
   4 N4           2.9785     2.6324    -0.9187 N.2          1    LIG   0.0000
   5 C5           3.4002     1.7880     0.0709 C.ar         1    LIG   0.0000
   6 C6           2.7393     1.0000     1.0000 C.ar         1    LIG   0.0000
   7 S7           1.0000     1.0000     1.0000 S.3          1    LIG   0.0000
   8 C8           0.6052     2.7664     1.0126 C.3          1    LIG   0.0000
   9 C9           0.0163     3.1635    -0.3312 C.3          1    LIG   0.0000
  10 F10         -1.3062     3.0277    -0.2933 F            1    LIG   0.0000
  11 F11          0.3245     4.4305    -0.5932 F            1    LIG   0.0000
  12 F12          0.5154     2.3799    -1.2829 F            1    LIG   0.0000
  13 N13          3.4176     0.2507     1.8801 N.ar         1    LIG   0.0000
  14 C14          4.7595     0.2574     1.8729 C.ar         1    LIG   0.0000
  15 N15          5.4158     1.0142     0.9809 N.ar         1    LIG   0.0000
  16 C16          4.7764     1.7785     0.0819 C.ar         1    LIG   0.0000
  17 H            6.5232     3.5976    -2.0613 H            1    LIG   0.0000
  18 H            7.0010     3.3594    -0.5180 H            1    LIG   0.0000
  19 H            7.0017     2.1141    -1.5745 H            1    LIG   0.0000
  20 H            4.0181     3.7895    -2.2810 H            1    LIG   0.0000
  21 H            1.4386     3.2930     1.1801 H            1    LIG   0.0000
  22 H           -0.0590     2.9543     1.7362 H            1    LIG   0.0000
  23 H            5.2679    -0.2994     2.5298 H            1    LIG   0.0000
@<TRIPOS>BOND
   1        1        2 1
   2        2        3 1
   3        3        4 2
   4        4        5 1
   5        5        6 ar
   6        6        7 1
   7        7        8 1
   8        8        9 1
   9        9       10 1
  10        9       11 1
  11        9       12 1
  12        6       13 ar
  13       13       14 ar
  14       14       15 ar
  15       15       16 ar
  16       16        5 ar
  17       16        2 1
  18        1       17 1
  19        1       18 1
  20        1       19 1
  21        3       20 1
  22        8       21 1
  23        8       22 1
  24       14       23 1

@<TRIPOS>MOLECULE

  23   24
SMALL
USER_CHARGES
@<TRIPOS>ATOM
   1 C1           6.5283     0.9833     4.0148 C.3          1    LIG   0.0000
   2 N2           5.1443     0.9865     3.5176 N.pl3        1    LIG   0.0000
   3 C3           4.0310     0.9791     4.3066 C.2          1    LIG   0.0000
   4 N4           2.9785     0.9828     3.5191 N.2          1    LIG   0.0000
   5 C5           3.4002     0.9936     2.2183 C.ar         1    LIG   0.0000
   6 C6           2.7393     1.0000     1.0000 C.ar         1    LIG   0.0000
   7 S7           1.0000     1.0000     1.0000 S.3          1    LIG   0.0000
   8 C8           0.6052     2.7664     1.0126 C.3          1    LIG   0.0000
   9 C9          -0.9039     2.9482     1.0140 C.3          1    LIG   0.0000
  10 F10         -1.3430     3.0011     2.2683 F            1    LIG   0.0000
  11 F11         -1.2147     4.0795     0.3874 F            1    LIG   0.0000
  12 F12         -1.4745     1.9232     0.3874 F            1    LIG   0.0000
  13 N13          3.4176     1.0083    -0.1559 N.ar         1    LIG   0.0000
  14 C14          4.7595     1.0077    -0.1460 C.ar         1    LIG   0.0000
  15 N15          5.4158     1.0014     1.0237 N.ar         1    LIG   0.0000
  16 C16          4.7764     0.9938     2.2038 C.ar         1    LIG   0.0000
  17 H            6.5232     0.9778     5.0148 H            1    LIG   0.0000
  18 H            7.0010     0.1684     3.6794 H            1    LIG   0.0000
  19 H            7.0017     1.8014     3.6883 H            1    LIG   0.0000
  20 H            4.0181     0.9721     5.3065 H            1    LIG   0.0000
  21 H            0.9925     3.2003     0.1992 H            1    LIG   0.0000
  22 H            0.9925     3.1886     1.8322 H            1    LIG   0.0000
  23 H            5.2679     1.0121    -1.0071 H            1    LIG   0.0000
@<TRIPOS>BOND
   1        1        2 1
   2        2        3 1
   3        3        4 2
   4        4        5 1
   5        5        6 ar
   6        6        7 1
   7        7        8 1
   8        8        9 1
   9        9       10 1
  10        9       11 1
  11        9       12 1
  12        6       13 ar
  13       13       14 ar
  14       14       15 ar
  15       15       16 ar
  16       16        5 ar
  17       16        2 1
  18        1       17 1
  19        1       18 1
  20        1       19 1
  21        3       20 1
  22        8       21 1
  23        8       22 1
  24       14       23 1

@<TRIPOS>MOLECULE

  23   24
SMALL
USER_CHARGES
@<TRIPOS>ATOM
   1 C1           6.5283     0.9833     4.0148 C.3          1    LIG   0.0000
   2 N2           5.1443     0.9865     3.5176 N.pl3        1    LIG   0.0000
   3 C3           4.0310     0.9791     4.3066 C.2          1    LIG   0.0000
   4 N4           2.9785     0.9828     3.5191 N.2          1    LIG   0.0000
   5 C5           3.4002     0.9936     2.2183 C.ar         1    LIG   0.0000
   6 C6           2.7393     1.0000     1.0000 C.ar         1    LIG   0.0000
   7 S7           1.0000     1.0000     1.0000 S.3          1    LIG   0.0000
   8 C8           0.6052     2.7664     1.0126 C.3          1    LIG   0.0000
   9 C9          -0.2046     3.0956     2.2561 C.3          1    LIG   0.0000
  10 F10          0.6185     3.4326     3.2449 F            1    LIG   0.0000
  11 F11         -1.0238     4.1106     1.9958 F            1    LIG   0.0000
  12 F12         -0.9173     2.0318     2.6156 F            1    LIG   0.0000
  13 N13          3.4176     1.0083    -0.1559 N.ar         1    LIG   0.0000
  14 C14          4.7595     1.0077    -0.1460 C.ar         1    LIG   0.0000
  15 N15          5.4158     1.0014     1.0237 N.ar         1    LIG   0.0000
  16 C16          4.7764     0.9938     2.2038 C.ar         1    LIG   0.0000
  17 H            6.5232     0.9778     5.0148 H            1    LIG   0.0000
  18 H            7.0010     0.1684     3.6794 H            1    LIG   0.0000
  19 H            7.0017     1.8014     3.6883 H            1    LIG   0.0000
  20 H            4.0181     0.9721     5.3065 H            1    LIG   0.0000
  21 H            0.0724     2.9947     0.1978 H            1    LIG   0.0000
  22 H            1.4525     3.2973     1.0165 H            1    LIG   0.0000
  23 H            5.2679     1.0121    -1.0071 H            1    LIG   0.0000
@<TRIPOS>BOND
   1        1        2 1
   2        2        3 1
   3        3        4 2
   4        4        5 1
   5        5        6 ar
   6        6        7 1
   7        7        8 1
   8        8        9 1
   9        9       10 1
  10        9       11 1
  11        9       12 1
  12        6       13 ar
  13       13       14 ar
  14       14       15 ar
  15       15       16 ar
  16       16        5 ar
  17       16        2 1
  18        1       17 1
  19        1       18 1
  20        1       19 1
  21        3       20 1
  22        8       21 1
  23        8       22 1
  24       14       23 1

@<TRIPOS>MOLECULE

  23   24
SMALL
USER_CHARGES
@<TRIPOS>ATOM
   1 C1           6.5283     0.9833     4.0148 C.3          1    LIG   0.0000
   2 N2           5.1443     0.9865     3.5176 N.pl3        1    LIG   0.0000
   3 C3           4.0310     0.9791     4.3066 C.2          1    LIG   0.0000
   4 N4           2.9785     0.9828     3.5191 N.2          1    LIG   0.0000
   5 C5           3.4002     0.9936     2.2183 C.ar         1    LIG   0.0000
   6 C6           2.7393     1.0000     1.0000 C.ar         1    LIG   0.0000
   7 S7           1.0000     1.0000     1.0000 S.3          1    LIG   0.0000
   8 C8           0.6052     2.7664     1.0126 C.3          1    LIG   0.0000
   9 C9           0.0163     3.1635    -0.3312 C.3          1    LIG   0.0000
  10 F10         -1.3062     3.0277    -0.2933 F            1    LIG   0.0000
  11 F11          0.3245     4.4305    -0.5932 F            1    LIG   0.0000
  12 F12          0.5154     2.3799    -1.2829 F            1    LIG   0.0000
  13 N13          3.4176     1.0083    -0.1559 N.ar         1    LIG   0.0000
  14 C14          4.7595     1.0077    -0.1460 C.ar         1    LIG   0.0000
  15 N15          5.4158     1.0014     1.0237 N.ar         1    LIG   0.0000
  16 C16          4.7764     0.9938     2.2038 C.ar         1    LIG   0.0000
  17 H            6.5232     0.9778     5.0148 H            1    LIG   0.0000
  18 H            7.0010     0.1684     3.6794 H            1    LIG   0.0000
  19 H            7.0017     1.8014     3.6883 H            1    LIG   0.0000
  20 H            4.0181     0.9721     5.3065 H            1    LIG   0.0000
  21 H            1.4386     3.2930     1.1801 H            1    LIG   0.0000
  22 H           -0.0590     2.9543     1.7362 H            1    LIG   0.0000
  23 H            5.2679     1.0121    -1.0071 H            1    LIG   0.0000
@<TRIPOS>BOND
   1        1        2 1
   2        2        3 1
   3        3        4 2
   4        4        5 1
   5        5        6 ar
   6        6        7 1
   7        7        8 1
   8        8        9 1
   9        9       10 1
  10        9       11 1
  11        9       12 1
  12        6       13 ar
  13       13       14 ar
  14       14       15 ar
  15       15       16 ar
  16       16        5 ar
  17       16        2 1
  18        1       17 1
  19        1       18 1
  20        1       19 1
  21        3       20 1
  22        8       21 1
  23        8       22 1
  24       14       23 1

@<TRIPOS>MOLECULE

  23   24
SMALL
USER_CHARGES
@<TRIPOS>ATOM
   1 C1           6.5283     3.6025     2.5219 C.3          1    LIG   0.0000
   2 N2           5.1443     3.1736     2.2705 N.pl3        1    LIG   0.0000
   3 C3           4.0310     3.8531     2.6714 C.2          1    LIG   0.0000
   4 N4           2.9785     3.1730     2.2744 N.2          1    LIG   0.0000
   5 C5           3.4002     2.0519     1.6147 C.ar         1    LIG   0.0000
   6 C6           2.7393     1.0000     1.0000 C.ar         1    LIG   0.0000
   7 S7           1.0000     1.0000     1.0000 S.3          1    LIG   0.0000
   8 C8           0.6052     2.7664     1.0126 C.3          1    LIG   0.0000
   9 C9          -0.2046     3.0956     2.2561 C.3          1    LIG   0.0000
  10 F10          0.6185     3.4326     3.2449 F            1    LIG   0.0000
  11 F11         -1.0238     4.1106     1.9958 F            1    LIG   0.0000
  12 F12         -0.9173     2.0318     2.6156 F            1    LIG   0.0000
  13 N13          3.4176     0.0031     0.4149 N.ar         1    LIG   0.0000
  14 C14          4.7595     0.0114     0.4203 C.ar         1    LIG   0.0000
  15 N15          5.4158     1.0212     1.0107 N.ar         1    LIG   0.0000
  16 C16          4.7764     2.0394     1.6073 C.ar         1    LIG   0.0000
  17 H            6.5232     4.4658     3.0266 H            1    LIG   0.0000
  18 H            7.0010     2.9047     3.0599 H            1    LIG   0.0000
  19 H            7.0017     3.7288     1.6501 H            1    LIG   0.0000
  20 H            4.0181     4.7156     3.1774 H            1    LIG   0.0000
  21 H            0.0724     2.9947     0.1978 H            1    LIG   0.0000
  22 H            1.4525     3.2973     1.0165 H            1    LIG   0.0000
  23 H            5.2679    -0.7322    -0.0140 H            1    LIG   0.0000
@<TRIPOS>BOND
   1        1        2 1
   2        2        3 1
   3        3        4 2
   4        4        5 1
   5        5        6 ar
   6        6        7 1
   7        7        8 1
   8        8        9 1
   9        9       10 1
  10        9       11 1
  11        9       12 1
  12        6       13 ar
  13       13       14 ar
  14       14       15 ar
  15       15       16 ar
  16       16        5 ar
  17       16        2 1
  18        1       17 1
  19        1       18 1
  20        1       19 1
  21        3       20 1
  22        8       21 1
  23        8       22 1
  24       14       23 1

