@<TRIPOS>MOLECULE
*****
 23 24 0 0 0
SMALL
USER_CHARGES

@<TRIPOS>ATOM
      1 C1          6.5283    3.6025    2.5219 C.3     1  LIG1        0.0000
      2 N2          5.1443    3.1736    2.2705 N.pl3   1  LIG1        0.0000
      3 C3          4.0310    3.8531    2.6714 C.2     1  LIG1        0.0000
      4 N4          2.9785    3.1730    2.2744 N.2     1  LIG1        0.0000
      5 C5          3.4002    2.0519    1.6147 C.ar    1  LIG1        0.0000
      6 C6          2.7393    1.0000    1.0000 C.ar    1  LIG1        0.0000
      7 S7          1.0000    1.0000    1.0000 S.3     1  LIG1        0.0000
      8 C8          0.6052    2.7664    1.0126 C.3     1  LIG1        0.0000
      9 C9         -0.2046    3.0956    2.2561 C.3     1  LIG1        0.0000
     10 F10         0.6185    3.4326    3.2449 F       1  LIG1        0.0000
     11 F11        -1.0238    4.1106    1.9958 F       1  LIG1        0.0000
     12 F12        -0.9173    2.0318    2.6156 F       1  LIG1        0.0000
     13 N13         3.4176    0.0031    0.4149 N.ar    1  LIG1        0.0000
     14 C14         4.7595    0.0114    0.4203 C.ar    1  LIG1        0.0000
     15 N15         5.4158    1.0212    1.0107 N.ar    1  LIG1        0.0000
     16 C16         4.7764    2.0394    1.6073 C.ar    1  LIG1        0.0000
     17 H           6.5232    4.4658    3.0266 H       1  LIG1        0.0000
     18 H           7.0010    2.9047    3.0599 H       1  LIG1        0.0000
     19 H           7.0017    3.7288    1.6501 H       1  LIG1        0.0000
     20 H           4.0181    4.7156    3.1774 H       1  LIG1        0.0000
     21 H           0.0724    2.9947    0.1978 H       1  LIG1        0.0000
     22 H           1.4525    3.2973    1.0165 H       1  LIG1        0.0000
     23 H           5.2679   -0.7322   -0.0140 H       1  LIG1        0.0000
@<TRIPOS>BOND
     1     1     2    1
     2     2     3    1
     3     3     4    2
     4     4     5    1
     5     5     6   ar
     6     6     7    1
     7     7     8    1
     8     8     9    1
     9     9    10    1
    10     9    11    1
    11     9    12    1
    12     6    13   ar
    13    13    14   ar
    14    14    15   ar
    15    15    16   ar
    16    16     5   ar
    17    16     2    1
    18     1    17    1
    19     1    18    1
    20     1    19    1
    21     3    20    1
    22     8    21    1
    23     8    22    1
    24    14    23    1
