@<TRIPOS>MOLECULE
*****
 23 24 0 0 0
SMALL
USER_CHARGES

@<TRIPOS>ATOM
      1 C1          6.5283    2.9507   -1.2987 C.3     1  LIG1        0.0000
      2 N2          5.1443    2.6286   -0.9199 N.pl3   1  LIG1        0.0000
      3 C3          4.0310    3.1414   -1.5195 C.2     1  LIG1        0.0000
      4 N4          2.9785    2.6324   -0.9187 N.2     1  LIG1        0.0000
      5 C5          3.4002    1.7880    0.0709 C.ar    1  LIG1        0.0000
      6 C6          2.7393    1.0000    1.0000 C.ar    1  LIG1        0.0000
      7 S7          1.0000    1.0000    1.0000 S.3     1  LIG1        0.0000
      8 C8          0.6052    2.7664    1.0126 C.3     1  LIG1        0.0000
      9 C9          0.0163    3.1635   -0.3312 C.3     1  LIG1        0.0000
     10 F10        -1.3062    3.0277   -0.2933 F       1  LIG1        0.0000
     11 F11         0.3245    4.4305   -0.5932 F       1  LIG1        0.0000
     12 F12         0.5154    2.3799   -1.2829 F       1  LIG1        0.0000
     13 N13         3.4176    0.2507    1.8801 N.ar    1  LIG1        0.0000
     14 C14         4.7595    0.2574    1.8729 C.ar    1  LIG1        0.0000
     15 N15         5.4158    1.0142    0.9809 N.ar    1  LIG1        0.0000
     16 C16         4.7764    1.7785    0.0819 C.ar    1  LIG1        0.0000
     17 H           6.5232    3.5976   -2.0613 H       1  LIG1        0.0000
     18 H           7.0010    3.3594   -0.5180 H       1  LIG1        0.0000
     19 H           7.0017    2.1141   -1.5745 H       1  LIG1        0.0000
     20 H           4.0181    3.7895   -2.2810 H       1  LIG1        0.0000
     21 H           1.4386    3.2930    1.1801 H       1  LIG1        0.0000
     22 H          -0.0590    2.9543    1.7362 H       1  LIG1        0.0000
     23 H           5.2679   -0.2994    2.5298 H       1  LIG1        0.0000
@<TRIPOS>BOND
     1     1     2    1
     2     2     3    1
     3     3     4    2
     4     4     5    1
     5     5     6   ar
     6     6     7    1
     7     7     8    1
     8     8     9    1
     9     9    10    1
    10     9    11    1
    11     9    12    1
    12     6    13   ar
    13    13    14   ar
    14    14    15   ar
    15    15    16   ar
    16    16     5   ar
    17    16     2    1
    18     1    17    1
    19     1    18    1
    20     1    19    1
    21     3    20    1
    22     8    21    1
    23     8    22    1
    24    14    23    1
