@<TRIPOS>MOLECULE
*****
 23 24 0 0 0
SMALL
USER_CHARGES

@<TRIPOS>ATOM
      1 C1          6.5283    0.9833    4.0148 C.3     1  LIG1        0.0000
      2 N2          5.1443    0.9865    3.5176 N.pl3   1  LIG1        0.0000
      3 C3          4.0310    0.9791    4.3066 C.2     1  LIG1        0.0000
      4 N4          2.9785    0.9828    3.5191 N.2     1  LIG1        0.0000
      5 C5          3.4002    0.9936    2.2183 C.ar    1  LIG1        0.0000
      6 C6          2.7393    1.0000    1.0000 C.ar    1  LIG1        0.0000
      7 S7          1.0000    1.0000    1.0000 S.3     1  LIG1        0.0000
      8 C8          0.6052    2.7664    1.0126 C.3     1  LIG1        0.0000
      9 C9         -0.2046    3.0956    2.2561 C.3     1  LIG1        0.0000
     10 F10         0.6185    3.4326    3.2449 F       1  LIG1        0.0000
     11 F11        -1.0238    4.1106    1.9958 F       1  LIG1        0.0000
     12 F12        -0.9173    2.0318    2.6156 F       1  LIG1        0.0000
     13 N13         3.4176    1.0083   -0.1559 N.ar    1  LIG1        0.0000
     14 C14         4.7595    1.0077   -0.1460 C.ar    1  LIG1        0.0000
     15 N15         5.4158    1.0014    1.0237 N.ar    1  LIG1        0.0000
     16 C16         4.7764    0.9938    2.2038 C.ar    1  LIG1        0.0000
     17 H           6.5232    0.9778    5.0148 H       1  LIG1        0.0000
     18 H           7.0010    0.1684    3.6794 H       1  LIG1        0.0000
     19 H           7.0017    1.8014    3.6883 H       1  LIG1        0.0000
     20 H           4.0181    0.9721    5.3065 H       1  LIG1        0.0000
     21 H           0.0724    2.9947    0.1978 H       1  LIG1        0.0000
     22 H           1.4525    3.2973    1.0165 H       1  LIG1        0.0000
     23 H           5.2679    1.0121   -1.0071 H       1  LIG1        0.0000
@<TRIPOS>BOND
     1     1     2    1
     2     2     3    1
     3     3     4    2
     4     4     5    1
     5     5     6   ar
     6     6     7    1
     7     7     8    1
     8     8     9    1
     9     9    10    1
    10     9    11    1
    11     9    12    1
    12     6    13   ar
    13    13    14   ar
    14    14    15   ar
    15    15    16   ar
    16    16     5   ar
    17    16     2    1
    18     1    17    1
    19     1    18    1
    20     1    19    1
    21     3    20    1
    22     8    21    1
    23     8    22    1
    24    14    23    1
