@<TRIPOS>MOLECULE
*****
 23 24 0 0 0
SMALL
USER_CHARGES

@<TRIPOS>ATOM
      1 C1          6.5283   -1.6193    2.4929 C.3     1  LIG1        0.0000
      2 N2          5.1443   -1.1871    2.2471 N.pl3   1  LIG1        0.0000
      3 C3          4.0310   -1.8740    2.6352 C.2     1  LIG1        0.0000
      4 N4          2.9785   -1.1902    2.2447 N.2     1  LIG1        0.0000
      5 C5          3.4002   -0.0583    1.6036 C.ar    1  LIG1        0.0000
      6 C6          2.7393    1.0000    1.0000 C.ar    1  LIG1        0.0000
      7 S7          1.0000    1.0000    1.0000 S.3     1  LIG1        0.0000
      8 C8          0.6052    2.7664    1.0126 C.3     1  LIG1        0.0000
      9 C9          0.0163    3.1635   -0.3312 C.3     1  LIG1        0.0000
     10 F10        -1.3062    3.0277   -0.2933 F       1  LIG1        0.0000
     11 F11         0.3245    4.4305   -0.5932 F       1  LIG1        0.0000
     12 F12         0.5154    2.3799   -1.2829 F       1  LIG1        0.0000
     13 N13         3.4176    2.0051    0.4292 N.ar    1  LIG1        0.0000
     14 C14         4.7595    1.9964    0.4337 C.ar    1  LIG1        0.0000
     15 N15         5.4158    0.9801    1.0131 N.ar    1  LIG1        0.0000
     16 C16         4.7764   -0.0456    1.5965 C.ar    1  LIG1        0.0000
     17 H           6.5232   -2.4880    2.9882 H       1  LIG1        0.0000
     18 H           7.0010   -1.7363    1.6195 H       1  LIG1        0.0000
     19 H           7.0017   -0.9275    3.0382 H       1  LIG1        0.0000
     20 H           4.0181   -2.7435    3.1291 H       1  LIG1        0.0000
     21 H           1.4386    3.2930    1.1801 H       1  LIG1        0.0000
     22 H          -0.0590    2.9543    1.7362 H       1  LIG1        0.0000
     23 H           5.2679    2.7442    0.0069 H       1  LIG1        0.0000
@<TRIPOS>BOND
     1     1     2    1
     2     2     3    1
     3     3     4    2
     4     4     5    1
     5     5     6   ar
     6     6     7    1
     7     7     8    1
     8     8     9    1
     9     9    10    1
    10     9    11    1
    11     9    12    1
    12     6    13   ar
    13    13    14   ar
    14    14    15   ar
    15    15    16   ar
    16    16     5   ar
    17    16     2    1
    18     1    17    1
    19     1    18    1
    20     1    19    1
    21     3    20    1
    22     8    21    1
    23     8    22    1
    24    14    23    1
