@<TRIPOS>MOLECULE
*****
 23 24 0 0 0
SMALL
USER_CHARGES

@<TRIPOS>ATOM
      1 C1          6.5283    1.0167   -2.0148 C.3     1  LIG1        0.0000
      2 N2          5.1443    1.0135   -1.5176 N.pl3   1  LIG1        0.0000
      3 C3          4.0310    1.0209   -2.3066 C.2     1  LIG1        0.0000
      4 N4          2.9785    1.0172   -1.5191 N.2     1  LIG1        0.0000
      5 C5          3.4002    1.0064   -0.2183 C.ar    1  LIG1        0.0000
      6 C6          2.7393    1.0000    1.0000 C.ar    1  LIG1        0.0000
      7 S7          1.0000    1.0000    1.0000 S.3     1  LIG1        0.0000
      8 C8          0.6052    2.7664    1.0126 C.3     1  LIG1        0.0000
      9 C9          0.9730    3.3581    2.3636 C.3     1  LIG1        0.0000
     10 F10         2.2273    3.7988    2.3278 F       1  LIG1        0.0000
     11 F11         0.1555    4.3696    2.6419 F       1  LIG1        0.0000
     12 F12         0.8579    2.4237    3.3030 F       1  LIG1        0.0000
     13 N13         3.4176    0.9917    2.1559 N.ar    1  LIG1        0.0000
     14 C14         4.7595    0.9923    2.1460 C.ar    1  LIG1        0.0000
     15 N15         5.4158    0.9986    0.9763 N.ar    1  LIG1        0.0000
     16 C16         4.7764    1.0062   -0.2038 C.ar    1  LIG1        0.0000
     17 H           6.5232    1.0222   -3.0148 H       1  LIG1        0.0000
     18 H           7.0010    1.8316   -1.6794 H       1  LIG1        0.0000
     19 H           7.0017    0.1986   -1.6883 H       1  LIG1        0.0000
     20 H           4.0181    1.0279   -3.3065 H       1  LIG1        0.0000
     21 H          -0.3737    2.8903    0.8498 H       1  LIG1        0.0000
     22 H           1.1239    3.2290    0.2937 H       1  LIG1        0.0000
     23 H           5.2679    0.9879    3.0071 H       1  LIG1        0.0000
@<TRIPOS>BOND
     1     1     2    1
     2     2     3    1
     3     3     4    2
     4     4     5    1
     5     5     6   ar
     6     6     7    1
     7     7     8    1
     8     8     9    1
     9     9    10    1
    10     9    11    1
    11     9    12    1
    12     6    13   ar
    13    13    14   ar
    14    14    15   ar
    15    15    16   ar
    16    16     5   ar
    17    16     2    1
    18     1    17    1
    19     1    18    1
    20     1    19    1
    21     3    20    1
    22     8    21    1
    23     8    22    1
    24    14    23    1
