@<TRIPOS>MOLECULE

  63   66
SMALL
USER_CHARGES
@<TRIPOS>ATOM
   1 C1           6.7981    -3.7575    -1.3150 C.3          1    LIG   0.0000
   2 C2           5.4702    -3.0180    -1.2983 C.2          1    LIG   0.0000
   3 O3           4.4494    -3.6218    -1.1158 O.2          1    LIG   0.0000
   4 N4           5.4388    -1.6621    -1.4917 N.am         1    LIG   0.0000
   5 C5           4.1546    -0.9469    -1.4757 C.3          1    LIG   0.0000
   6 C6           3.7226    -0.7135    -0.0371 C.3          1    LIG   0.0000
   7 C7           2.3953     0.0257    -0.0205 C.ar         1    LIG   0.0000
   8 C8           2.3824     1.4162    -0.0077 C.ar         1    LIG   0.0000
   9 C9           1.1712     2.1003     0.0072 C.ar         1    LIG   0.0000
  10 C10         -0.0173     1.3776     0.0102 C.ar         1    LIG   0.0000
  11 C11         -1.2821     2.0859     0.0254 C.2          1    LIG   0.0000
  12 O12         -1.2978     3.2858     0.0354 O.2          1    LIG   0.0000
  13 C13         -2.5884     1.3088     0.0288 C.3          1    LIG   0.0000
  14 O14         -3.6796     2.2173     0.0444 O.3          1    LIG   0.0000
  15 C15         -4.8696     1.6694     0.0488 C.2          1    LIG   0.0000
  16 O16         -4.9800     0.4746     0.0399 O.2          1    LIG   0.0000
  17 C17         -6.0536     2.5071     0.0645 C.2          1    LIG   0.0000
  18 N18         -7.3362     2.0551     0.0704 N.2          1    LIG   0.0000
  19 C19         -8.1227     3.1068     0.0870 C.2          1    LIG   0.0000
  20 C20         -9.5715     3.0447     0.1002 C.ar         1    LIG   0.0000
  21 C21        -10.2185     1.9737    -0.5081 C.ar         1    LIG   0.0000
  22 C22        -11.6080     1.9053    -0.5009 C.ar         1    LIG   0.0000
  23 C23        -12.3332     2.9178     0.1188 C.ar         1    LIG   0.0000
  24 F24        -13.6617     2.8585     0.1295 F            1    LIG   0.0000
  25 C25        -11.6953     3.9928     0.7290 C.ar         1    LIG   0.0000
  26 C26        -10.3053     4.0521     0.7173 C.ar         1    LIG   0.0000
  27 N27         -7.3870     4.2519     0.0905 N.pl3        1    LIG   0.0000
  28 C28         -6.0804     3.8681     0.0805 C.2          1    LIG   0.0000
  29 C29         -4.8780     4.7967     0.1113 C.3          1    LIG   0.0000
  30 C30         -5.0808     5.9863     1.0428 C.3          1    LIG   0.0000
  31 C31         -5.8650     7.1377     0.4282 C.3          1    LIG   0.0000
  32 C32         -6.9357     6.6602    -0.5453 C.3          1    LIG   0.0000
  33 C33         -7.8728     5.6460     0.0981 C.3          1    LIG   0.0000
  34 C34         -0.0137    -0.0137    -0.0015 C.ar         1    LIG   0.0000
  35 C35          1.2016    -0.6895    -0.0163 C.ar         1    LIG   0.0000
  36 H            7.5398    -3.1070    -1.4782 H            1    LIG   0.0000
  37 H            6.9390    -4.2094    -0.4341 H            1    LIG   0.0000
  38 H            6.7890    -4.4425    -2.0434 H            1    LIG   0.0000
  39 H            6.2894    -1.1588    -1.6438 H            1    LIG   0.0000
  40 H            3.4626    -1.4937    -1.9470 H            1    LIG   0.0000
  41 H            4.2571    -0.0671    -1.9398 H            1    LIG   0.0000
  42 H            3.6200    -1.5933     0.4270 H            1    LIG   0.0000
  43 H            4.4146    -0.1667     0.4342 H            1    LIG   0.0000
  44 H            3.2436     1.9243    -0.0092 H            1    LIG   0.0000
  45 H            1.1552     3.1001     0.0158 H            1    LIG   0.0000
  46 H           -2.6400     0.7399    -0.7920 H            1    LIG   0.0000
  47 H           -2.6278     0.7265     0.8409 H            1    LIG   0.0000
  48 H           -9.6847     1.2530    -0.9505 H            1    LIG   0.0000
  49 H          -12.0795     1.1381    -0.9358 H            1    LIG   0.0000
  50 H          -12.2290     4.7140     1.1705 H            1    LIG   0.0000
  51 H           -9.8339     4.8191     1.1527 H            1    LIG   0.0000
  52 H           -4.7135     5.1387    -0.8140 H            1    LIG   0.0000
  53 H           -4.0810     4.2788     0.4218 H            1    LIG   0.0000
  54 H           -4.1811     6.3293     1.3130 H            1    LIG   0.0000
  55 H           -5.5736     5.6691     1.8530 H            1    LIG   0.0000
  56 H           -6.3063     7.6534     1.1626 H            1    LIG   0.0000
  57 H           -5.2288     7.7337    -0.0618 H            1    LIG   0.0000
  58 H           -7.4711     7.4480    -0.8497 H            1    LIG   0.0000
  59 H           -6.4904     6.2351    -1.3333 H            1    LIG   0.0000
  60 H           -8.0181     5.9183     1.0493 H            1    LIG   0.0000
  61 H           -8.7434     5.6734    -0.3931 H            1    LIG   0.0000
  62 H           -0.8750    -0.5218     0.0008 H            1    LIG   0.0000
  63 H            1.2177    -1.6893    -0.0240 H            1    LIG   0.0000
@<TRIPOS>BOND
   1        1        2 1
   2        2        3 2
   3        2        4 am
   4        4        5 1
   5        5        6 1
   6        6        7 1
   7        7        8 ar
   8        8        9 ar
   9        9       10 ar
  10       10       11 1
  11       11       12 2
  12       11       13 1
  13       13       14 1
  14       14       15 1
  15       15       16 2
  16       15       17 1
  17       17       18 1
  18       18       19 2
  19       19       20 1
  20       20       21 ar
  21       21       22 ar
  22       22       23 ar
  23       23       24 1
  24       23       25 ar
  25       25       26 ar
  26       26       20 ar
  27       19       27 1
  28       27       28 1
  29       28       17 2
  30       28       29 1
  31       29       30 1
  32       30       31 1
  33       31       32 1
  34       32       33 1
  35       33       27 1
  36       10       34 ar
  37       34       35 ar
  38       35        7 ar
  39        1       36 1
  40        1       37 1
  41        1       38 1
  42        4       39 1
  43        5       40 1
  44        5       41 1
  45        6       42 1
  46        6       43 1
  47        8       44 1
  48        9       45 1
  49       13       46 1
  50       13       47 1
  51       21       48 1
  52       22       49 1
  53       25       50 1
  54       26       51 1
  55       29       52 1
  56       29       53 1
  57       30       54 1
  58       30       55 1
  59       31       56 1
  60       31       57 1
  61       32       58 1
  62       32       59 1
  63       33       60 1
  64       33       61 1
  65       34       62 1
  66       35       63 1

@<TRIPOS>MOLECULE

  63   66
SMALL
USER_CHARGES
@<TRIPOS>ATOM
   1 C1           5.4020     0.9049     1.6681 C.3          1    LIG   0.0000
   2 C2           6.4257     0.2257     0.7731 C.2          1    LIG   0.0000
   3 O3           7.5479     0.0592     1.1641 O.2          1    LIG   0.0000
   4 N4           6.0672    -0.1964    -0.4800 N.am         1    LIG   0.0000
   5 C5           4.6925     0.0075    -0.9590 C.3          1    LIG   0.0000
   6 C6           3.7226    -0.7135    -0.0371 C.3          1    LIG   0.0000
   7 C7           2.3953     0.0257    -0.0205 C.ar         1    LIG   0.0000
   8 C8           2.3824     1.4162    -0.0077 C.ar         1    LIG   0.0000
   9 C9           1.1712     2.1003     0.0072 C.ar         1    LIG   0.0000
  10 C10         -0.0173     1.3776     0.0102 C.ar         1    LIG   0.0000
  11 C11         -1.2821     2.0859     0.0254 C.2          1    LIG   0.0000
  12 O12         -1.2978     3.2858     0.0354 O.2          1    LIG   0.0000
  13 C13         -2.5884     1.3088     0.0288 C.3          1    LIG   0.0000
  14 O14         -3.6796     2.2173     0.0444 O.3          1    LIG   0.0000
  15 C15         -4.8696     1.6694     0.0488 C.2          1    LIG   0.0000
  16 O16         -4.9800     0.4746     0.0399 O.2          1    LIG   0.0000
  17 C17         -6.0536     2.5071     0.0645 C.2          1    LIG   0.0000
  18 N18         -7.3362     2.0551     0.0704 N.2          1    LIG   0.0000
  19 C19         -8.1227     3.1068     0.0870 C.2          1    LIG   0.0000
  20 C20         -9.5715     3.0447     0.1002 C.ar         1    LIG   0.0000
  21 C21        -10.2185     1.9737    -0.5081 C.ar         1    LIG   0.0000
  22 C22        -11.6080     1.9053    -0.5009 C.ar         1    LIG   0.0000
  23 C23        -12.3332     2.9178     0.1188 C.ar         1    LIG   0.0000
  24 F24        -13.6617     2.8585     0.1295 F            1    LIG   0.0000
  25 C25        -11.6953     3.9928     0.7290 C.ar         1    LIG   0.0000
  26 C26        -10.3053     4.0521     0.7173 C.ar         1    LIG   0.0000
  27 N27         -7.3870     4.2519     0.0905 N.pl3        1    LIG   0.0000
  28 C28         -6.0804     3.8681     0.0805 C.2          1    LIG   0.0000
  29 C29         -4.8780     4.7967     0.1113 C.3          1    LIG   0.0000
  30 C30         -5.0808     5.9863     1.0428 C.3          1    LIG   0.0000
  31 C31         -5.8650     7.1377     0.4282 C.3          1    LIG   0.0000
  32 C32         -6.9357     6.6602    -0.5453 C.3          1    LIG   0.0000
  33 C33         -7.8728     5.6460     0.0981 C.3          1    LIG   0.0000
  34 C34         -0.0137    -0.0137    -0.0015 C.ar         1    LIG   0.0000
  35 C35          1.2016    -0.6895    -0.0163 C.ar         1    LIG   0.0000
  36 H            4.5260     0.9617     1.1891 H            1    LIG   0.0000
  37 H            5.2889     0.3739     2.5079 H            1    LIG   0.0000
  38 H            5.7175     1.8261     1.8961 H            1    LIG   0.0000
  39 H            6.7408    -0.6433    -1.0688 H            1    LIG   0.0000
  40 H            4.6050    -0.3572    -1.8860 H            1    LIG   0.0000
  41 H            4.4830     0.9853    -0.9643 H            1    LIG   0.0000
  42 H            3.5803    -1.6467    -0.3671 H            1    LIG   0.0000
  43 H            4.1003    -0.7411     0.8883 H            1    LIG   0.0000
  44 H            3.2436     1.9243    -0.0092 H            1    LIG   0.0000
  45 H            1.1552     3.1001     0.0158 H            1    LIG   0.0000
  46 H           -2.6400     0.7399    -0.7920 H            1    LIG   0.0000
  47 H           -2.6278     0.7265     0.8409 H            1    LIG   0.0000
  48 H           -9.6847     1.2530    -0.9505 H            1    LIG   0.0000
  49 H          -12.0795     1.1381    -0.9358 H            1    LIG   0.0000
  50 H          -12.2290     4.7140     1.1705 H            1    LIG   0.0000
  51 H           -9.8339     4.8191     1.1527 H            1    LIG   0.0000
  52 H           -4.7135     5.1387    -0.8140 H            1    LIG   0.0000
  53 H           -4.0810     4.2788     0.4218 H            1    LIG   0.0000
  54 H           -4.1811     6.3293     1.3130 H            1    LIG   0.0000
  55 H           -5.5736     5.6691     1.8530 H            1    LIG   0.0000
  56 H           -6.3063     7.6534     1.1626 H            1    LIG   0.0000
  57 H           -5.2288     7.7337    -0.0618 H            1    LIG   0.0000
  58 H           -7.4711     7.4480    -0.8497 H            1    LIG   0.0000
  59 H           -6.4904     6.2351    -1.3333 H            1    LIG   0.0000
  60 H           -8.0181     5.9183     1.0493 H            1    LIG   0.0000
  61 H           -8.7434     5.6734    -0.3931 H            1    LIG   0.0000
  62 H           -0.8750    -0.5218     0.0008 H            1    LIG   0.0000
  63 H            1.2177    -1.6893    -0.0240 H            1    LIG   0.0000
@<TRIPOS>BOND
   1        1        2 1
   2        2        3 2
   3        2        4 am
   4        4        5 1
   5        5        6 1
   6        6        7 1
   7        7        8 ar
   8        8        9 ar
   9        9       10 ar
  10       10       11 1
  11       11       12 2
  12       11       13 1
  13       13       14 1
  14       14       15 1
  15       15       16 2
  16       15       17 1
  17       17       18 1
  18       18       19 2
  19       19       20 1
  20       20       21 ar
  21       21       22 ar
  22       22       23 ar
  23       23       24 1
  24       23       25 ar
  25       25       26 ar
  26       26       20 ar
  27       19       27 1
  28       27       28 1
  29       28       17 2
  30       28       29 1
  31       29       30 1
  32       30       31 1
  33       31       32 1
  34       32       33 1
  35       33       27 1
  36       10       34 ar
  37       34       35 ar
  38       35        7 ar
  39        1       36 1
  40        1       37 1
  41        1       38 1
  42        4       39 1
  43        5       40 1
  44        5       41 1
  45        6       42 1
  46        6       43 1
  47        8       44 1
  48        9       45 1
  49       13       46 1
  50       13       47 1
  51       21       48 1
  52       22       49 1
  53       25       50 1
  54       26       51 1
  55       29       52 1
  56       29       53 1
  57       30       54 1
  58       30       55 1
  59       31       56 1
  60       31       57 1
  61       32       58 1
  62       32       59 1
  63       33       60 1
  64       33       61 1
  65       34       62 1
  66       35       63 1

@<TRIPOS>MOLECULE

  63   66
SMALL
USER_CHARGES
@<TRIPOS>ATOM
   1 C1           4.2565    -3.7143     2.2207 C.3          1    LIG   0.0000
   2 C2           5.5190    -2.9992     1.7676 C.2          1    LIG   0.0000
   3 O3           6.5673    -3.5831     1.7545 O.2          1    LIG   0.0000
   4 N4           5.4601    -1.6883     1.3742 N.am         1    LIG   0.0000
   5 C5           4.1759    -0.9731     1.3903 C.3          1    LIG   0.0000
   6 C6           3.7226    -0.7135    -0.0371 C.3          1    LIG   0.0000
   7 C7           2.3953     0.0257    -0.0205 C.ar         1    LIG   0.0000
   8 C8           2.3824     1.4162    -0.0077 C.ar         1    LIG   0.0000
   9 C9           1.1712     2.1003     0.0072 C.ar         1    LIG   0.0000
  10 C10         -0.0173     1.3776     0.0102 C.ar         1    LIG   0.0000
  11 C11         -1.2821     2.0859     0.0254 C.2          1    LIG   0.0000
  12 O12         -1.2978     3.2858     0.0354 O.2          1    LIG   0.0000
  13 C13         -2.5884     1.3088     0.0288 C.3          1    LIG   0.0000
  14 O14         -3.6796     2.2173     0.0444 O.3          1    LIG   0.0000
  15 C15         -4.8696     1.6694     0.0488 C.2          1    LIG   0.0000
  16 O16         -4.9800     0.4746     0.0399 O.2          1    LIG   0.0000
  17 C17         -6.0536     2.5071     0.0645 C.2          1    LIG   0.0000
  18 N18         -7.0085     2.5002     1.0328 N.2          1    LIG   0.0000
  19 C19         -7.9133     3.3913     0.6977 C.2          1    LIG   0.0000
  20 C20         -9.0987     3.6872     1.4790 C.ar         1    LIG   0.0000
  21 C21         -9.6768     2.6876     2.2551 C.ar         1    LIG   0.0000
  22 C22        -10.8142     2.9617     3.0079 C.ar         1    LIG   0.0000
  23 C23        -11.3593     4.2410     2.9711 C.ar         1    LIG   0.0000
  24 F24        -12.4463     4.5098     3.6885 F            1    LIG   0.0000
  25 C25        -10.7888     5.2466     2.1977 C.ar         1    LIG   0.0000
  26 C26         -9.6510     4.9632     1.4488 C.ar         1    LIG   0.0000
  27 N27         -7.5793     3.9907    -0.4777 N.pl3        1    LIG   0.0000
  28 C28         -6.4015     3.4320    -0.8719 C.2          1    LIG   0.0000
  29 C29         -5.6121     3.8009    -2.1167 C.3          1    LIG   0.0000
  30 C30         -5.6107     5.3014    -2.3859 C.3          1    LIG   0.0000
  31 C31         -6.8510     5.8103    -3.1079 C.3          1    LIG   0.0000
  32 C32         -8.1087     5.0430    -2.7183 C.3          1    LIG   0.0000
  33 C33         -8.3219     5.0357    -1.2099 C.3          1    LIG   0.0000
  34 C34         -0.0137    -0.0137    -0.0015 C.ar         1    LIG   0.0000
  35 C35          1.2016    -0.6895    -0.0163 C.ar         1    LIG   0.0000
  36 H            3.4807    -3.0854     2.1697 H            1    LIG   0.0000
  37 H            4.0876    -4.5009     1.6268 H            1    LIG   0.0000
  38 H            4.3707    -4.0270     3.1636 H            1    LIG   0.0000
  39 H            6.2906    -1.2179     1.0761 H            1    LIG   0.0000
  40 H            4.2854    -0.1019     1.8689 H            1    LIG   0.0000
  41 H            3.4909    -1.5286     1.8617 H            1    LIG   0.0000
  42 H            4.4076    -0.1580    -0.5086 H            1    LIG   0.0000
  43 H            3.6130    -1.5847    -0.5157 H            1    LIG   0.0000
  44 H            3.2436     1.9243    -0.0092 H            1    LIG   0.0000
  45 H            1.1552     3.1001     0.0158 H            1    LIG   0.0000
  46 H           -2.6400     0.7399    -0.7920 H            1    LIG   0.0000
  47 H           -2.6278     0.7265     0.8409 H            1    LIG   0.0000
  48 H           -9.2748     1.7721     2.2718 H            1    LIG   0.0000
  49 H          -11.2345     2.2481     3.5683 H            1    LIG   0.0000
  50 H          -11.1914     6.1618     2.1803 H            1    LIG   0.0000
  51 H           -9.2304     5.6770     0.8889 H            1    LIG   0.0000
  52 H           -6.0175     3.3347    -2.9031 H            1    LIG   0.0000
  53 H           -4.6671     3.4956    -1.9990 H            1    LIG   0.0000
  54 H           -4.8113     5.5183    -2.9461 H            1    LIG   0.0000
  55 H           -5.5420     5.7767    -1.5087 H            1    LIG   0.0000
  56 H           -6.9810     6.7755    -2.8809 H            1    LIG   0.0000
  57 H           -6.7099     5.7157    -4.0933 H            1    LIG   0.0000
  58 H           -8.8987     5.4733    -3.1549 H            1    LIG   0.0000
  59 H           -8.0241     4.0992    -3.0379 H            1    LIG   0.0000
  60 H           -8.0382     5.9255    -0.8526 H            1    LIG   0.0000
  61 H           -9.2975     4.9022    -1.0356 H            1    LIG   0.0000
  62 H           -0.8750    -0.5218     0.0008 H            1    LIG   0.0000
  63 H            1.2177    -1.6893    -0.0240 H            1    LIG   0.0000
@<TRIPOS>BOND
   1        1        2 1
   2        2        3 2
   3        2        4 am
   4        4        5 1
   5        5        6 1
   6        6        7 1
   7        7        8 ar
   8        8        9 ar
   9        9       10 ar
  10       10       11 1
  11       11       12 2
  12       11       13 1
  13       13       14 1
  14       14       15 1
  15       15       16 2
  16       15       17 1
  17       17       18 1
  18       18       19 2
  19       19       20 1
  20       20       21 ar
  21       21       22 ar
  22       22       23 ar
  23       23       24 1
  24       23       25 ar
  25       25       26 ar
  26       26       20 ar
  27       19       27 1
  28       27       28 1
  29       28       17 2
  30       28       29 1
  31       29       30 1
  32       30       31 1
  33       31       32 1
  34       32       33 1
  35       33       27 1
  36       10       34 ar
  37       34       35 ar
  38       35        7 ar
  39        1       36 1
  40        1       37 1
  41        1       38 1
  42        4       39 1
  43        5       40 1
  44        5       41 1
  45        6       42 1
  46        6       43 1
  47        8       44 1
  48        9       45 1
  49       13       46 1
  50       13       47 1
  51       21       48 1
  52       22       49 1
  53       25       50 1
  54       26       51 1
  55       29       52 1
  56       29       53 1
  57       30       54 1
  58       30       55 1
  59       31       56 1
  60       31       57 1
  61       32       58 1
  62       32       59 1
  63       33       60 1
  64       33       61 1
  65       34       62 1
  66       35       63 1

@<TRIPOS>MOLECULE

  63   66
SMALL
USER_CHARGES
@<TRIPOS>ATOM
   1 C1           4.1772    -3.7829    -1.0671 C.3          1    LIG   0.0000
   2 C2           5.4702    -3.0180    -1.2983 C.2          1    LIG   0.0000
   3 O3           6.5185    -3.6018    -1.3115 O.2          1    LIG   0.0000
   4 N4           5.4388    -1.6621    -1.4917 N.am         1    LIG   0.0000
   5 C5           4.1546    -0.9469    -1.4757 C.3          1    LIG   0.0000
   6 C6           3.7226    -0.7135    -0.0371 C.3          1    LIG   0.0000
   7 C7           2.3953     0.0257    -0.0205 C.ar         1    LIG   0.0000
   8 C8           2.3824     1.4162    -0.0077 C.ar         1    LIG   0.0000
   9 C9           1.1712     2.1003     0.0072 C.ar         1    LIG   0.0000
  10 C10         -0.0173     1.3776     0.0102 C.ar         1    LIG   0.0000
  11 C11         -1.2821     2.0859     0.0254 C.2          1    LIG   0.0000
  12 O12         -1.2978     3.2858     0.0354 O.2          1    LIG   0.0000
  13 C13         -2.5884     1.3088     0.0288 C.3          1    LIG   0.0000
  14 O14         -3.6796     2.2173     0.0444 O.3          1    LIG   0.0000
  15 C15         -4.8696     1.6694     0.0488 C.2          1    LIG   0.0000
  16 O16         -4.9800     0.4746     0.0399 O.2          1    LIG   0.0000
  17 C17         -6.0536     2.5071     0.0645 C.2          1    LIG   0.0000
  18 N18         -7.0229     2.5159    -0.8894 N.2          1    LIG   0.0000
  19 C19         -7.9246     3.3982    -0.5242 C.2          1    LIG   0.0000
  20 C20         -9.1243     3.7026    -1.2799 C.ar         1    LIG   0.0000
  21 C21         -9.1140     3.5752    -2.6654 C.ar         1    LIG   0.0000
  22 C22        -10.2598     3.8651    -3.3991 C.ar         1    LIG   0.0000
  23 C23        -11.4060     4.2817    -2.7298 C.ar         1    LIG   0.0000
  24 F24        -12.5048     4.5602    -3.4252 F            1    LIG   0.0000
  25 C25        -11.4256     4.4127    -1.3451 C.ar         1    LIG   0.0000
  26 C26        -10.2751     4.1198    -0.6198 C.ar         1    LIG   0.0000
  27 N27         -7.5726     3.9790     0.6553 N.pl3        1    LIG   0.0000
  28 C28         -6.3920     3.4099     1.0256 C.2          1    LIG   0.0000
  29 C29         -5.6160     3.7127     2.2964 C.3          1    LIG   0.0000
  30 C30         -6.5242     3.9000     3.5064 C.3          1    LIG   0.0000
  31 C31         -7.1282     5.2925     3.6279 C.3          1    LIG   0.0000
  32 C32         -7.4210     5.9216     2.2712 C.3          1    LIG   0.0000
  33 C33         -8.2968     5.0222     1.4082 C.3          1    LIG   0.0000
  34 C34         -0.0137    -0.0137    -0.0015 C.ar         1    LIG   0.0000
  35 C35          1.2016    -0.6895    -0.0163 C.ar         1    LIG   0.0000
  36 H            3.4056    -3.1470    -1.0873 H            1    LIG   0.0000
  37 H            4.0627    -4.4689    -1.7856 H            1    LIG   0.0000
  38 H            4.2126    -4.2359    -0.1763 H            1    LIG   0.0000
  39 H            6.2894    -1.1588    -1.6438 H            1    LIG   0.0000
  40 H            3.4626    -1.4937    -1.9470 H            1    LIG   0.0000
  41 H            4.2571    -0.0671    -1.9398 H            1    LIG   0.0000
  42 H            3.6200    -1.5933     0.4270 H            1    LIG   0.0000
  43 H            4.4146    -0.1667     0.4342 H            1    LIG   0.0000
  44 H            3.2436     1.9243    -0.0092 H            1    LIG   0.0000
  45 H            1.1552     3.1001     0.0158 H            1    LIG   0.0000
  46 H           -2.6400     0.7399    -0.7920 H            1    LIG   0.0000
  47 H           -2.6278     0.7265     0.8409 H            1    LIG   0.0000
  48 H           -8.2829     3.2752    -3.1337 H            1    LIG   0.0000
  49 H          -10.2596     3.7751    -4.3951 H            1    LIG   0.0000
  50 H          -12.2564     4.7137    -0.8769 H            1    LIG   0.0000
  51 H          -10.2756     4.2093     0.3762 H            1    LIG   0.0000
  52 H           -5.0895     4.5516     2.1581 H            1    LIG   0.0000
  53 H           -4.9914     2.9535     2.4790 H            1    LIG   0.0000
  54 H           -5.9886     3.7180     4.3311 H            1    LIG   0.0000
  55 H           -7.2719     3.2390     3.4420 H            1    LIG   0.0000
  56 H           -7.9831     5.2275     4.1425 H            1    LIG   0.0000
  57 H           -6.4857     5.8788     4.1214 H            1    LIG   0.0000
  58 H           -7.8917     6.7924     2.4129 H            1    LIG   0.0000
  59 H           -6.5561     6.0837     1.7960 H            1    LIG   0.0000
  60 H           -8.9594     4.5699     2.0051 H            1    LIG   0.0000
  61 H           -8.7805     5.5996     0.7504 H            1    LIG   0.0000
  62 H           -0.8750    -0.5218     0.0008 H            1    LIG   0.0000
  63 H            1.2177    -1.6893    -0.0240 H            1    LIG   0.0000
@<TRIPOS>BOND
   1        1        2 1
   2        2        3 2
   3        2        4 am
   4        4        5 1
   5        5        6 1
   6        6        7 1
   7        7        8 ar
   8        8        9 ar
   9        9       10 ar
  10       10       11 1
  11       11       12 2
  12       11       13 1
  13       13       14 1
  14       14       15 1
  15       15       16 2
  16       15       17 1
  17       17       18 1
  18       18       19 2
  19       19       20 1
  20       20       21 ar
  21       21       22 ar
  22       22       23 ar
  23       23       24 1
  24       23       25 ar
  25       25       26 ar
  26       26       20 ar
  27       19       27 1
  28       27       28 1
  29       28       17 2
  30       28       29 1
  31       29       30 1
  32       30       31 1
  33       31       32 1
  34       32       33 1
  35       33       27 1
  36       10       34 ar
  37       34       35 ar
  38       35        7 ar
  39        1       36 1
  40        1       37 1
  41        1       38 1
  42        4       39 1
  43        5       40 1
  44        5       41 1
  45        6       42 1
  46        6       43 1
  47        8       44 1
  48        9       45 1
  49       13       46 1
  50       13       47 1
  51       21       48 1
  52       22       49 1
  53       25       50 1
  54       26       51 1
  55       29       52 1
  56       29       53 1
  57       30       54 1
  58       30       55 1
  59       31       56 1
  60       31       57 1
  61       32       58 1
  62       32       59 1
  63       33       60 1
  64       33       61 1
  65       34       62 1
  66       35       63 1

@<TRIPOS>MOLECULE

  63   66
SMALL
USER_CHARGES
@<TRIPOS>ATOM
   1 C1           7.9534    -1.7384     1.1492 C.3          1    LIG   0.0000
   2 C2           6.6255    -0.9989     1.1658 C.2          1    LIG   0.0000
   3 O3           6.5979     0.1888     0.9964 O.2          1    LIG   0.0000
   4 N4           5.4601    -1.6883     1.3742 N.am         1    LIG   0.0000
   5 C5           4.1759    -0.9731     1.3903 C.3          1    LIG   0.0000
   6 C6           3.7226    -0.7135    -0.0371 C.3          1    LIG   0.0000
   7 C7           2.3953     0.0257    -0.0205 C.ar         1    LIG   0.0000
   8 C8           2.3824     1.4162    -0.0077 C.ar         1    LIG   0.0000
   9 C9           1.1712     2.1003     0.0072 C.ar         1    LIG   0.0000
  10 C10         -0.0173     1.3776     0.0102 C.ar         1    LIG   0.0000
  11 C11         -1.2821     2.0859     0.0254 C.2          1    LIG   0.0000
  12 O12         -1.2978     3.2858     0.0354 O.2          1    LIG   0.0000
  13 C13         -2.5884     1.3088     0.0288 C.3          1    LIG   0.0000
  14 O14         -3.6796     2.2173     0.0444 O.3          1    LIG   0.0000
  15 C15         -4.8696     1.6694     0.0488 C.2          1    LIG   0.0000
  16 O16         -4.9800     0.4746     0.0399 O.2          1    LIG   0.0000
  17 C17         -6.0536     2.5071     0.0645 C.2          1    LIG   0.0000
  18 N18         -7.0229     2.5159    -0.8894 N.2          1    LIG   0.0000
  19 C19         -7.9246     3.3982    -0.5242 C.2          1    LIG   0.0000
  20 C20         -9.1243     3.7026    -1.2799 C.ar         1    LIG   0.0000
  21 C21         -9.1140     3.5752    -2.6654 C.ar         1    LIG   0.0000
  22 C22        -10.2598     3.8651    -3.3991 C.ar         1    LIG   0.0000
  23 C23        -11.4060     4.2817    -2.7298 C.ar         1    LIG   0.0000
  24 F24        -12.5048     4.5602    -3.4252 F            1    LIG   0.0000
  25 C25        -11.4256     4.4127    -1.3451 C.ar         1    LIG   0.0000
  26 C26        -10.2751     4.1198    -0.6198 C.ar         1    LIG   0.0000
  27 N27         -7.5726     3.9790     0.6553 N.pl3        1    LIG   0.0000
  28 C28         -6.3920     3.4099     1.0256 C.2          1    LIG   0.0000
  29 C29         -5.6160     3.7127     2.2964 C.3          1    LIG   0.0000
  30 C30         -6.5242     3.9000     3.5064 C.3          1    LIG   0.0000
  31 C31         -7.1282     5.2925     3.6279 C.3          1    LIG   0.0000
  32 C32         -7.4210     5.9216     2.2712 C.3          1    LIG   0.0000
  33 C33         -8.2968     5.0222     1.4082 C.3          1    LIG   0.0000
  34 C34         -0.0137    -0.0137    -0.0015 C.ar         1    LIG   0.0000
  35 C35          1.2016    -0.6895    -0.0163 C.ar         1    LIG   0.0000
  36 H            7.7940    -2.7132     1.3052 H            1    LIG   0.0000
  37 H            8.3949    -1.6107     0.2611 H            1    LIG   0.0000
  38 H            8.5448    -1.3777     1.8704 H            1    LIG   0.0000
  39 H            5.4830    -2.6780     1.5154 H            1    LIG   0.0000
  40 H            4.2854    -0.1019     1.8689 H            1    LIG   0.0000
  41 H            3.4909    -1.5286     1.8617 H            1    LIG   0.0000
  42 H            4.4076    -0.1580    -0.5086 H            1    LIG   0.0000
  43 H            3.6130    -1.5847    -0.5157 H            1    LIG   0.0000
  44 H            3.2436     1.9243    -0.0092 H            1    LIG   0.0000
  45 H            1.1552     3.1001     0.0158 H            1    LIG   0.0000
  46 H           -2.6400     0.7399    -0.7920 H            1    LIG   0.0000
  47 H           -2.6278     0.7265     0.8409 H            1    LIG   0.0000
  48 H           -8.2829     3.2752    -3.1337 H            1    LIG   0.0000
  49 H          -10.2596     3.7751    -4.3951 H            1    LIG   0.0000
  50 H          -12.2564     4.7137    -0.8769 H            1    LIG   0.0000
  51 H          -10.2756     4.2093     0.3762 H            1    LIG   0.0000
  52 H           -5.0895     4.5516     2.1581 H            1    LIG   0.0000
  53 H           -4.9914     2.9535     2.4790 H            1    LIG   0.0000
  54 H           -5.9886     3.7180     4.3311 H            1    LIG   0.0000
  55 H           -7.2719     3.2390     3.4420 H            1    LIG   0.0000
  56 H           -7.9831     5.2275     4.1425 H            1    LIG   0.0000
  57 H           -6.4857     5.8788     4.1214 H            1    LIG   0.0000
  58 H           -7.8917     6.7924     2.4129 H            1    LIG   0.0000
  59 H           -6.5561     6.0837     1.7960 H            1    LIG   0.0000
  60 H           -8.9594     4.5699     2.0051 H            1    LIG   0.0000
  61 H           -8.7805     5.5996     0.7504 H            1    LIG   0.0000
  62 H           -0.8750    -0.5218     0.0008 H            1    LIG   0.0000
  63 H            1.2177    -1.6893    -0.0240 H            1    LIG   0.0000
@<TRIPOS>BOND
   1        1        2 1
   2        2        3 2
   3        2        4 am
   4        4        5 1
   5        5        6 1
   6        6        7 1
   7        7        8 ar
   8        8        9 ar
   9        9       10 ar
  10       10       11 1
  11       11       12 2
  12       11       13 1
  13       13       14 1
  14       14       15 1
  15       15       16 2
  16       15       17 1
  17       17       18 1
  18       18       19 2
  19       19       20 1
  20       20       21 ar
  21       21       22 ar
  22       22       23 ar
  23       23       24 1
  24       23       25 ar
  25       25       26 ar
  26       26       20 ar
  27       19       27 1
  28       27       28 1
  29       28       17 2
  30       28       29 1
  31       29       30 1
  32       30       31 1
  33       31       32 1
  34       32       33 1
  35       33       27 1
  36       10       34 ar
  37       34       35 ar
  38       35        7 ar
  39        1       36 1
  40        1       37 1
  41        1       38 1
  42        4       39 1
  43        5       40 1
  44        5       41 1
  45        6       42 1
  46        6       43 1
  47        8       44 1
  48        9       45 1
  49       13       46 1
  50       13       47 1
  51       21       48 1
  52       22       49 1
  53       25       50 1
  54       26       51 1
  55       29       52 1
  56       29       53 1
  57       30       54 1
  58       30       55 1
  59       31       56 1
  60       31       57 1
  61       32       58 1
  62       32       59 1
  63       33       60 1
  64       33       61 1
  65       34       62 1
  66       35       63 1

@<TRIPOS>MOLECULE

  63   66
SMALL
USER_CHARGES
@<TRIPOS>ATOM
   1 C1           6.7981    -3.7575    -1.3150 C.3          1    LIG   0.0000
   2 C2           5.4702    -3.0180    -1.2983 C.2          1    LIG   0.0000
   3 O3           4.4494    -3.6218    -1.1158 O.2          1    LIG   0.0000
   4 N4           5.4388    -1.6621    -1.4917 N.am         1    LIG   0.0000
   5 C5           4.1546    -0.9469    -1.4757 C.3          1    LIG   0.0000
   6 C6           3.7226    -0.7135    -0.0371 C.3          1    LIG   0.0000
   7 C7           2.3953     0.0257    -0.0205 C.ar         1    LIG   0.0000
   8 C8           2.3824     1.4162    -0.0077 C.ar         1    LIG   0.0000
   9 C9           1.1712     2.1003     0.0072 C.ar         1    LIG   0.0000
  10 C10         -0.0173     1.3776     0.0102 C.ar         1    LIG   0.0000
  11 C11         -1.2821     2.0859     0.0254 C.2          1    LIG   0.0000
  12 O12         -1.2978     3.2858     0.0354 O.2          1    LIG   0.0000
  13 C13         -2.5884     1.3088     0.0288 C.3          1    LIG   0.0000
  14 O14         -3.6796     2.2173     0.0444 O.3          1    LIG   0.0000
  15 C15         -4.8696     1.6694     0.0488 C.2          1    LIG   0.0000
  16 O16         -4.9800     0.4746     0.0399 O.2          1    LIG   0.0000
  17 C17         -6.0536     2.5071     0.0645 C.2          1    LIG   0.0000
  18 N18         -6.0542     3.8670     0.0756 N.2          1    LIG   0.0000
  19 C19         -7.3078     4.2587     0.0860 C.2          1    LIG   0.0000
  20 C20         -7.7315     5.6456     0.0976 C.ar         1    LIG   0.0000
  21 C21         -6.9261     6.6046     0.7038 C.ar         1    LIG   0.0000
  22 C22         -7.3241     7.9375     0.7203 C.ar         1    LIG   0.0000
  23 C23         -8.5309     8.2920     0.1261 C.ar         1    LIG   0.0000
  24 F24         -8.9171     9.5645     0.1381 F            1    LIG   0.0000
  25 C25         -9.3430     7.3402    -0.4817 C.ar         1    LIG   0.0000
  26 C26         -8.9363     6.0097    -0.4939 C.ar         1    LIG   0.0000
  27 N27         -8.1427     3.1838     0.0838 N.pl3        1    LIG   0.0000
  28 C28         -7.3460     2.0795     0.0660 C.2          1    LIG   0.0000
  29 C29         -7.8221     0.6370     0.0256 C.3          1    LIG   0.0000
  30 C30         -9.0277     0.4438    -0.8873 C.3          1    LIG   0.0000
  31 C31        -10.3634     0.7922    -0.2446 C.3          1    LIG   0.0000
  32 C32        -10.2521     1.9486     0.7415 C.3          1    LIG   0.0000
  33 C33         -9.6190     3.1779     0.1022 C.3          1    LIG   0.0000
  34 C34         -0.0137    -0.0137    -0.0015 C.ar         1    LIG   0.0000
  35 C35          1.2016    -0.6895    -0.0163 C.ar         1    LIG   0.0000
  36 H            7.5398    -3.1070    -1.4782 H            1    LIG   0.0000
  37 H            6.9390    -4.2094    -0.4341 H            1    LIG   0.0000
  38 H            6.7890    -4.4425    -2.0434 H            1    LIG   0.0000
  39 H            6.2894    -1.1588    -1.6438 H            1    LIG   0.0000
  40 H            3.4626    -1.4937    -1.9470 H            1    LIG   0.0000
  41 H            4.2571    -0.0671    -1.9398 H            1    LIG   0.0000
  42 H            3.6200    -1.5933     0.4270 H            1    LIG   0.0000
  43 H            4.4146    -0.1667     0.4342 H            1    LIG   0.0000
  44 H            3.2436     1.9243    -0.0092 H            1    LIG   0.0000
  45 H            1.1552     3.1001     0.0158 H            1    LIG   0.0000
  46 H           -2.6400     0.7399    -0.7920 H            1    LIG   0.0000
  47 H           -2.6278     0.7265     0.8409 H            1    LIG   0.0000
  48 H           -6.0612     6.3357     1.1277 H            1    LIG   0.0000
  49 H           -6.7498     8.6321     1.1538 H            1    LIG   0.0000
  50 H          -10.2084     7.6089    -0.9047 H            1    LIG   0.0000
  51 H           -9.5103     5.3153    -0.9279 H            1    LIG   0.0000
  52 H           -8.0735     0.3565     0.9519 H            1    LIG   0.0000
  53 H           -7.0741     0.0619    -0.3054 H            1    LIG   0.0000
  54 H           -9.0565    -0.5153    -1.1691 H            1    LIG   0.0000
  55 H           -8.9068     1.0243    -1.6926 H            1    LIG   0.0000
  56 H          -11.0093     1.0458    -0.9647 H            1    LIG   0.0000
  57 H          -10.7049    -0.0121     0.2415 H            1    LIG   0.0000
  58 H          -11.1677     2.1873     1.0652 H            1    LIG   0.0000
  59 H           -9.6893     1.6604     1.5162 H            1    LIG   0.0000
  60 H           -9.9408     3.2361    -0.8428 H            1    LIG   0.0000
  61 H           -9.9258     3.9835     0.6090 H            1    LIG   0.0000
  62 H           -0.8750    -0.5218     0.0008 H            1    LIG   0.0000
  63 H            1.2177    -1.6893    -0.0240 H            1    LIG   0.0000
@<TRIPOS>BOND
   1        1        2 1
   2        2        3 2
   3        2        4 am
   4        4        5 1
   5        5        6 1
   6        6        7 1
   7        7        8 ar
   8        8        9 ar
   9        9       10 ar
  10       10       11 1
  11       11       12 2
  12       11       13 1
  13       13       14 1
  14       14       15 1
  15       15       16 2
  16       15       17 1
  17       17       18 1
  18       18       19 2
  19       19       20 1
  20       20       21 ar
  21       21       22 ar
  22       22       23 ar
  23       23       24 1
  24       23       25 ar
  25       25       26 ar
  26       26       20 ar
  27       19       27 1
  28       27       28 1
  29       28       17 2
  30       28       29 1
  31       29       30 1
  32       30       31 1
  33       31       32 1
  34       32       33 1
  35       33       27 1
  36       10       34 ar
  37       34       35 ar
  38       35        7 ar
  39        1       36 1
  40        1       37 1
  41        1       38 1
  42        4       39 1
  43        5       40 1
  44        5       41 1
  45        6       42 1
  46        6       43 1
  47        8       44 1
  48        9       45 1
  49       13       46 1
  50       13       47 1
  51       21       48 1
  52       22       49 1
  53       25       50 1
  54       26       51 1
  55       29       52 1
  56       29       53 1
  57       30       54 1
  58       30       55 1
  59       31       56 1
  60       31       57 1
  61       32       58 1
  62       32       59 1
  63       33       60 1
  64       33       61 1
  65       34       62 1
  66       35       63 1

@<TRIPOS>MOLECULE

  63   66
SMALL
USER_CHARGES
@<TRIPOS>ATOM
   1 C1           7.9834     0.2815     0.2836 C.3          1    LIG   0.0000
   2 C2           6.4939     0.3657    -0.0074 C.2          1    LIG   0.0000
   3 O3           5.7986     1.1062     0.6314 O.2          1    LIG   0.0000
   4 N4           5.9451    -0.4040    -0.9991 N.am         1    LIG   0.0000
   5 C5           4.5046    -0.3227    -1.2805 C.3          1    LIG   0.0000
   6 C6           3.7226    -0.7135    -0.0371 C.3          1    LIG   0.0000
   7 C7           2.3953     0.0257    -0.0205 C.ar         1    LIG   0.0000
   8 C8           2.3824     1.4162    -0.0077 C.ar         1    LIG   0.0000
   9 C9           1.1712     2.1003     0.0072 C.ar         1    LIG   0.0000
  10 C10         -0.0173     1.3776     0.0102 C.ar         1    LIG   0.0000
  11 C11         -1.2821     2.0859     0.0254 C.2          1    LIG   0.0000
  12 O12         -1.2978     3.2858     0.0354 O.2          1    LIG   0.0000
  13 C13         -2.5884     1.3088     0.0288 C.3          1    LIG   0.0000
  14 O14         -3.6796     2.2173     0.0444 O.3          1    LIG   0.0000
  15 C15         -4.8696     1.6694     0.0488 C.2          1    LIG   0.0000
  16 O16         -4.9800     0.4746     0.0399 O.2          1    LIG   0.0000
  17 C17         -6.0536     2.5071     0.0645 C.2          1    LIG   0.0000
  18 N18         -6.1442     3.7502    -0.4796 N.2          1    LIG   0.0000
  19 C19         -7.3656     4.1835    -0.2667 C.2          1    LIG   0.0000
  20 C20         -7.8621     5.4758    -0.6987 C.ar         1    LIG   0.0000
  21 C21         -7.8654     5.7923    -2.0535 C.ar         1    LIG   0.0000
  22 C22         -8.3395     7.0295    -2.4777 C.ar         1    LIG   0.0000
  23 C23         -8.8055     7.9372    -1.5321 C.ar         1    LIG   0.0000
  24 F24         -9.2602     9.1216    -1.9309 F            1    LIG   0.0000
  25 C25         -8.8055     7.6301    -0.1755 C.ar         1    LIG   0.0000
  26 C26         -8.3301     6.3900     0.2391 C.ar         1    LIG   0.0000
  27 N27         -8.0902     3.2520     0.4114 N.pl3        1    LIG   0.0000
  28 C28         -7.2585     2.1929     0.6147 C.2          1    LIG   0.0000
  29 C29         -7.6260     0.8902     1.3053 C.3          1    LIG   0.0000
  30 C30         -9.0270     0.4105     0.9429 C.3          1    LIG   0.0000
  31 C31        -10.1420     1.0678     1.7449 C.3          1    LIG   0.0000
  32 C32         -9.8314     2.5179     2.0957 C.3          1    LIG   0.0000
  33 C33         -9.4947     3.3393     0.8577 C.3          1    LIG   0.0000
  34 C34         -0.0137    -0.0137    -0.0015 C.ar         1    LIG   0.0000
  35 C35          1.2016    -0.6895    -0.0163 C.ar         1    LIG   0.0000
  36 H            8.4074    -0.3786    -0.3364 H            1    LIG   0.0000
  37 H            8.4005     1.1804     0.1494 H            1    LIG   0.0000
  38 H            8.1222    -0.0125     1.2293 H            1    LIG   0.0000
  39 H            6.5245    -1.0212    -1.5315 H            1    LIG   0.0000
  40 H            4.2754    -0.9460    -2.0282 H            1    LIG   0.0000
  41 H            4.2685     0.6131    -1.5424 H            1    LIG   0.0000
  42 H            3.5550    -1.6993    -0.0449 H            1    LIG   0.0000
  43 H            4.2492    -0.4713     0.7777 H            1    LIG   0.0000
  44 H            3.2436     1.9243    -0.0092 H            1    LIG   0.0000
  45 H            1.1552     3.1001     0.0158 H            1    LIG   0.0000
  46 H           -2.6400     0.7399    -0.7920 H            1    LIG   0.0000
  47 H           -2.6278     0.7265     0.8409 H            1    LIG   0.0000
  48 H           -7.5270     5.1304    -2.7224 H            1    LIG   0.0000
  49 H           -8.3452     7.2633    -3.4499 H            1    LIG   0.0000
  50 H           -9.1430     8.2923     0.4935 H            1    LIG   0.0000
  51 H           -8.3249     6.1560     1.2113 H            1    LIG   0.0000
  52 H           -7.5805     1.0281     2.2947 H            1    LIG   0.0000
  53 H           -6.9672     0.1878     1.0360 H            1    LIG   0.0000
  54 H           -9.0698    -0.5765     1.0979 H            1    LIG   0.0000
  55 H           -9.1829     0.6028    -0.0260 H            1    LIG   0.0000
  56 H          -10.9836     1.0416     1.2053 H            1    LIG   0.0000
  57 H          -10.2734     0.5538     2.5925 H            1    LIG   0.0000
  58 H          -10.6293     2.9205     2.5442 H            1    LIG   0.0000
  59 H           -9.0512     2.5397     2.7208 H            1    LIG   0.0000
  60 H          -10.0779     3.0244     0.1089 H            1    LIG   0.0000
  61 H           -9.6973     4.2980     1.0575 H            1    LIG   0.0000
  62 H           -0.8750    -0.5218     0.0008 H            1    LIG   0.0000
  63 H            1.2177    -1.6893    -0.0240 H            1    LIG   0.0000
@<TRIPOS>BOND
   1        1        2 1
   2        2        3 2
   3        2        4 am
   4        4        5 1
   5        5        6 1
   6        6        7 1
   7        7        8 ar
   8        8        9 ar
   9        9       10 ar
  10       10       11 1
  11       11       12 2
  12       11       13 1
  13       13       14 1
  14       14       15 1
  15       15       16 2
  16       15       17 1
  17       17       18 1
  18       18       19 2
  19       19       20 1
  20       20       21 ar
  21       21       22 ar
  22       22       23 ar
  23       23       24 1
  24       23       25 ar
  25       25       26 ar
  26       26       20 ar
  27       19       27 1
  28       27       28 1
  29       28       17 2
  30       28       29 1
  31       29       30 1
  32       30       31 1
  33       31       32 1
  34       32       33 1
  35       33       27 1
  36       10       34 ar
  37       34       35 ar
  38       35        7 ar
  39        1       36 1
  40        1       37 1
  41        1       38 1
  42        4       39 1
  43        5       40 1
  44        5       41 1
  45        6       42 1
  46        6       43 1
  47        8       44 1
  48        9       45 1
  49       13       46 1
  50       13       47 1
  51       21       48 1
  52       22       49 1
  53       25       50 1
  54       26       51 1
  55       29       52 1
  56       29       53 1
  57       30       54 1
  58       30       55 1
  59       31       56 1
  60       31       57 1
  61       32       58 1
  62       32       59 1
  63       33       60 1
  64       33       61 1
  65       34       62 1
  66       35       63 1

@<TRIPOS>MOLECULE

  63   66
SMALL
USER_CHARGES
@<TRIPOS>ATOM
   1 C1           4.2830    -3.6859    -3.2178 C.3          1    LIG   0.0000
   2 C2           5.3937    -3.1319    -2.3404 C.2          1    LIG   0.0000
   3 O3           6.5352    -3.4322    -2.5565 O.2          1    LIG   0.0000
   4 N4           5.0915    -2.2898    -1.3029 N.am         1    LIG   0.0000
   5 C5           3.8073    -1.5746    -1.2868 C.3          1    LIG   0.0000
   6 C6           3.7226    -0.7135    -0.0371 C.3          1    LIG   0.0000
   7 C7           2.3953     0.0257    -0.0205 C.ar         1    LIG   0.0000
   8 C8           2.3824     1.4162    -0.0077 C.ar         1    LIG   0.0000
   9 C9           1.1712     2.1003     0.0072 C.ar         1    LIG   0.0000
  10 C10         -0.0173     1.3776     0.0102 C.ar         1    LIG   0.0000
  11 C11         -1.2821     2.0859     0.0254 C.2          1    LIG   0.0000
  12 O12         -1.2978     3.2858     0.0354 O.2          1    LIG   0.0000
  13 C13         -2.5884     1.3088     0.0288 C.3          1    LIG   0.0000
  14 O14         -3.6796     2.2173     0.0444 O.3          1    LIG   0.0000
  15 C15         -4.8696     1.6694     0.0488 C.2          1    LIG   0.0000
  16 O16         -4.9800     0.4746     0.0399 O.2          1    LIG   0.0000
  17 C17         -6.0536     2.5071     0.0645 C.2          1    LIG   0.0000
  18 N18         -6.1442     3.7502    -0.4796 N.2          1    LIG   0.0000
  19 C19         -7.3656     4.1835    -0.2667 C.2          1    LIG   0.0000
  20 C20         -7.8621     5.4758    -0.6987 C.ar         1    LIG   0.0000
  21 C21         -7.8654     5.7923    -2.0535 C.ar         1    LIG   0.0000
  22 C22         -8.3395     7.0295    -2.4777 C.ar         1    LIG   0.0000
  23 C23         -8.8055     7.9372    -1.5321 C.ar         1    LIG   0.0000
  24 F24         -9.2602     9.1216    -1.9309 F            1    LIG   0.0000
  25 C25         -8.8055     7.6301    -0.1755 C.ar         1    LIG   0.0000
  26 C26         -8.3301     6.3900     0.2391 C.ar         1    LIG   0.0000
  27 N27         -8.0902     3.2520     0.4114 N.pl3        1    LIG   0.0000
  28 C28         -7.2585     2.1929     0.6147 C.2          1    LIG   0.0000
  29 C29         -7.6260     0.8902     1.3053 C.3          1    LIG   0.0000
  30 C30         -9.0270     0.4105     0.9429 C.3          1    LIG   0.0000
  31 C31        -10.1420     1.0678     1.7449 C.3          1    LIG   0.0000
  32 C32         -9.8314     2.5179     2.0957 C.3          1    LIG   0.0000
  33 C33         -9.4947     3.3393     0.8577 C.3          1    LIG   0.0000
  34 C34         -0.0137    -0.0137    -0.0015 C.ar         1    LIG   0.0000
  35 C35          1.2016    -0.6895    -0.0163 C.ar         1    LIG   0.0000
  36 H            3.4015    -3.3365    -2.9000 H            1    LIG   0.0000
  37 H            4.4326    -3.4010    -4.1646 H            1    LIG   0.0000
  38 H            4.2840    -4.6845    -3.1661 H            1    LIG   0.0000
  39 H            5.7446    -2.1616    -0.5565 H            1    LIG   0.0000
  40 H            3.0574    -2.2361    -1.2873 H            1    LIG   0.0000
  41 H            3.7394    -0.9932    -2.0975 H            1    LIG   0.0000
  42 H            3.7905    -1.2950     0.7736 H            1    LIG   0.0000
  43 H            4.4725    -0.0520    -0.0367 H            1    LIG   0.0000
  44 H            3.2436     1.9243    -0.0092 H            1    LIG   0.0000
  45 H            1.1552     3.1001     0.0158 H            1    LIG   0.0000
  46 H           -2.6400     0.7399    -0.7920 H            1    LIG   0.0000
  47 H           -2.6278     0.7265     0.8409 H            1    LIG   0.0000
  48 H           -7.5270     5.1304    -2.7224 H            1    LIG   0.0000
  49 H           -8.3452     7.2633    -3.4499 H            1    LIG   0.0000
  50 H           -9.1430     8.2923     0.4935 H            1    LIG   0.0000
  51 H           -8.3249     6.1560     1.2113 H            1    LIG   0.0000
  52 H           -7.5805     1.0281     2.2947 H            1    LIG   0.0000
  53 H           -6.9672     0.1878     1.0360 H            1    LIG   0.0000
  54 H           -9.0698    -0.5765     1.0979 H            1    LIG   0.0000
  55 H           -9.1829     0.6028    -0.0260 H            1    LIG   0.0000
  56 H          -10.9836     1.0416     1.2053 H            1    LIG   0.0000
  57 H          -10.2734     0.5538     2.5925 H            1    LIG   0.0000
  58 H          -10.6293     2.9205     2.5442 H            1    LIG   0.0000
  59 H           -9.0512     2.5397     2.7208 H            1    LIG   0.0000
  60 H          -10.0779     3.0244     0.1089 H            1    LIG   0.0000
  61 H           -9.6973     4.2980     1.0575 H            1    LIG   0.0000
  62 H           -0.8750    -0.5218     0.0008 H            1    LIG   0.0000
  63 H            1.2177    -1.6893    -0.0240 H            1    LIG   0.0000
@<TRIPOS>BOND
   1        1        2 1
   2        2        3 2
   3        2        4 am
   4        4        5 1
   5        5        6 1
   6        6        7 1
   7        7        8 ar
   8        8        9 ar
   9        9       10 ar
  10       10       11 1
  11       11       12 2
  12       11       13 1
  13       13       14 1
  14       14       15 1
  15       15       16 2
  16       15       17 1
  17       17       18 1
  18       18       19 2
  19       19       20 1
  20       20       21 ar
  21       21       22 ar
  22       22       23 ar
  23       23       24 1
  24       23       25 ar
  25       25       26 ar
  26       26       20 ar
  27       19       27 1
  28       27       28 1
  29       28       17 2
  30       28       29 1
  31       29       30 1
  32       30       31 1
  33       31       32 1
  34       32       33 1
  35       33       27 1
  36       10       34 ar
  37       34       35 ar
  38       35        7 ar
  39        1       36 1
  40        1       37 1
  41        1       38 1
  42        4       39 1
  43        5       40 1
  44        5       41 1
  45        6       42 1
  46        6       43 1
  47        8       44 1
  48        9       45 1
  49       13       46 1
  50       13       47 1
  51       21       48 1
  52       22       49 1
  53       25       50 1
  54       26       51 1
  55       29       52 1
  56       29       53 1
  57       30       54 1
  58       30       55 1
  59       31       56 1
  60       31       57 1
  61       32       58 1
  62       32       59 1
  63       33       60 1
  64       33       61 1
  65       34       62 1
  66       35       63 1

@<TRIPOS>MOLECULE

  63   66
SMALL
USER_CHARGES
@<TRIPOS>ATOM
   1 C1           4.2565    -3.7143     2.2207 C.3          1    LIG   0.0000
   2 C2           5.5190    -2.9992     1.7676 C.2          1    LIG   0.0000
   3 O3           6.5673    -3.5831     1.7545 O.2          1    LIG   0.0000
   4 N4           5.4601    -1.6883     1.3742 N.am         1    LIG   0.0000
   5 C5           4.1759    -0.9731     1.3903 C.3          1    LIG   0.0000
   6 C6           3.7226    -0.7135    -0.0371 C.3          1    LIG   0.0000
   7 C7           2.3953     0.0257    -0.0205 C.ar         1    LIG   0.0000
   8 C8           2.3824     1.4162    -0.0077 C.ar         1    LIG   0.0000
   9 C9           1.1712     2.1003     0.0072 C.ar         1    LIG   0.0000
  10 C10         -0.0173     1.3776     0.0102 C.ar         1    LIG   0.0000
  11 C11         -1.2821     2.0859     0.0254 C.2          1    LIG   0.0000
  12 O12         -1.2978     3.2858     0.0354 O.2          1    LIG   0.0000
  13 C13         -2.5884     1.3088     0.0288 C.3          1    LIG   0.0000
  14 O14         -3.6796     2.2173     0.0444 O.3          1    LIG   0.0000
  15 C15         -4.8696     1.6694     0.0488 C.2          1    LIG   0.0000
  16 O16         -4.9800     0.4746     0.0399 O.2          1    LIG   0.0000
  17 C17         -6.0536     2.5071     0.0645 C.2          1    LIG   0.0000
  18 N18         -6.1442     3.7502    -0.4796 N.2          1    LIG   0.0000
  19 C19         -7.3656     4.1835    -0.2667 C.2          1    LIG   0.0000
  20 C20         -7.8621     5.4758    -0.6987 C.ar         1    LIG   0.0000
  21 C21         -7.8654     5.7923    -2.0535 C.ar         1    LIG   0.0000
  22 C22         -8.3395     7.0295    -2.4777 C.ar         1    LIG   0.0000
  23 C23         -8.8055     7.9372    -1.5321 C.ar         1    LIG   0.0000
  24 F24         -9.2602     9.1216    -1.9309 F            1    LIG   0.0000
  25 C25         -8.8055     7.6301    -0.1755 C.ar         1    LIG   0.0000
  26 C26         -8.3301     6.3900     0.2391 C.ar         1    LIG   0.0000
  27 N27         -8.0902     3.2520     0.4114 N.pl3        1    LIG   0.0000
  28 C28         -7.2585     2.1929     0.6147 C.2          1    LIG   0.0000
  29 C29         -7.6260     0.8902     1.3053 C.3          1    LIG   0.0000
  30 C30         -9.0270     0.4105     0.9429 C.3          1    LIG   0.0000
  31 C31        -10.1420     1.0678     1.7449 C.3          1    LIG   0.0000
  32 C32         -9.8314     2.5179     2.0957 C.3          1    LIG   0.0000
  33 C33         -9.4947     3.3393     0.8577 C.3          1    LIG   0.0000
  34 C34         -0.0137    -0.0137    -0.0015 C.ar         1    LIG   0.0000
  35 C35          1.2016    -0.6895    -0.0163 C.ar         1    LIG   0.0000
  36 H            3.4807    -3.0854     2.1697 H            1    LIG   0.0000
  37 H            4.0876    -4.5009     1.6268 H            1    LIG   0.0000
  38 H            4.3707    -4.0270     3.1636 H            1    LIG   0.0000
  39 H            6.2906    -1.2179     1.0761 H            1    LIG   0.0000
  40 H            4.2854    -0.1019     1.8689 H            1    LIG   0.0000
  41 H            3.4909    -1.5286     1.8617 H            1    LIG   0.0000
  42 H            4.4076    -0.1580    -0.5086 H            1    LIG   0.0000
  43 H            3.6130    -1.5847    -0.5157 H            1    LIG   0.0000
  44 H            3.2436     1.9243    -0.0092 H            1    LIG   0.0000
  45 H            1.1552     3.1001     0.0158 H            1    LIG   0.0000
  46 H           -2.6400     0.7399    -0.7920 H            1    LIG   0.0000
  47 H           -2.6278     0.7265     0.8409 H            1    LIG   0.0000
  48 H           -7.5270     5.1304    -2.7224 H            1    LIG   0.0000
  49 H           -8.3452     7.2633    -3.4499 H            1    LIG   0.0000
  50 H           -9.1430     8.2923     0.4935 H            1    LIG   0.0000
  51 H           -8.3249     6.1560     1.2113 H            1    LIG   0.0000
  52 H           -7.5805     1.0281     2.2947 H            1    LIG   0.0000
  53 H           -6.9672     0.1878     1.0360 H            1    LIG   0.0000
  54 H           -9.0698    -0.5765     1.0979 H            1    LIG   0.0000
  55 H           -9.1829     0.6028    -0.0260 H            1    LIG   0.0000
  56 H          -10.9836     1.0416     1.2053 H            1    LIG   0.0000
  57 H          -10.2734     0.5538     2.5925 H            1    LIG   0.0000
  58 H          -10.6293     2.9205     2.5442 H            1    LIG   0.0000
  59 H           -9.0512     2.5397     2.7208 H            1    LIG   0.0000
  60 H          -10.0779     3.0244     0.1089 H            1    LIG   0.0000
  61 H           -9.6973     4.2980     1.0575 H            1    LIG   0.0000
  62 H           -0.8750    -0.5218     0.0008 H            1    LIG   0.0000
  63 H            1.2177    -1.6893    -0.0240 H            1    LIG   0.0000
@<TRIPOS>BOND
   1        1        2 1
   2        2        3 2
   3        2        4 am
   4        4        5 1
   5        5        6 1
   6        6        7 1
   7        7        8 ar
   8        8        9 ar
   9        9       10 ar
  10       10       11 1
  11       11       12 2
  12       11       13 1
  13       13       14 1
  14       14       15 1
  15       15       16 2
  16       15       17 1
  17       17       18 1
  18       18       19 2
  19       19       20 1
  20       20       21 ar
  21       21       22 ar
  22       22       23 ar
  23       23       24 1
  24       23       25 ar
  25       25       26 ar
  26       26       20 ar
  27       19       27 1
  28       27       28 1
  29       28       17 2
  30       28       29 1
  31       29       30 1
  32       30       31 1
  33       31       32 1
  34       32       33 1
  35       33       27 1
  36       10       34 ar
  37       34       35 ar
  38       35        7 ar
  39        1       36 1
  40        1       37 1
  41        1       38 1
  42        4       39 1
  43        5       40 1
  44        5       41 1
  45        6       42 1
  46        6       43 1
  47        8       44 1
  48        9       45 1
  49       13       46 1
  50       13       47 1
  51       21       48 1
  52       22       49 1
  53       25       50 1
  54       26       51 1
  55       29       52 1
  56       29       53 1
  57       30       54 1
  58       30       55 1
  59       31       56 1
  60       31       57 1
  61       32       58 1
  62       32       59 1
  63       33       60 1
  64       33       61 1
  65       34       62 1
  66       35       63 1

@<TRIPOS>MOLECULE

  63   66
SMALL
USER_CHARGES
@<TRIPOS>ATOM
   1 C1           5.8978     1.0208    -2.6155 C.3          1    LIG   0.0000
   2 C2           6.4500    -0.2808    -2.0577 C.2          1    LIG   0.0000
   3 O3           7.6303    -0.4950    -2.0911 O.2          1    LIG   0.0000
   4 N4           5.6004    -1.2093    -1.5167 N.am         1    LIG   0.0000
   5 C5           4.1546    -0.9469    -1.4757 C.3          1    LIG   0.0000
   6 C6           3.7226    -0.7135    -0.0371 C.3          1    LIG   0.0000
   7 C7           2.3953     0.0257    -0.0205 C.ar         1    LIG   0.0000
   8 C8           2.3824     1.4162    -0.0077 C.ar         1    LIG   0.0000
   9 C9           1.1712     2.1003     0.0072 C.ar         1    LIG   0.0000
  10 C10         -0.0173     1.3776     0.0102 C.ar         1    LIG   0.0000
  11 C11         -1.2821     2.0859     0.0254 C.2          1    LIG   0.0000
  12 O12         -1.2978     3.2858     0.0354 O.2          1    LIG   0.0000
  13 C13         -2.5884     1.3088     0.0288 C.3          1    LIG   0.0000
  14 O14         -3.6796     2.2173     0.0444 O.3          1    LIG   0.0000
  15 C15         -4.8696     1.6694     0.0488 C.2          1    LIG   0.0000
  16 O16         -4.9800     0.4746     0.0399 O.2          1    LIG   0.0000
  17 C17         -6.0536     2.5071     0.0645 C.2          1    LIG   0.0000
  18 N18         -6.1442     3.7502    -0.4796 N.2          1    LIG   0.0000
  19 C19         -7.3656     4.1835    -0.2667 C.2          1    LIG   0.0000
  20 C20         -7.8621     5.4758    -0.6987 C.ar         1    LIG   0.0000
  21 C21         -7.2492     6.6363    -0.2367 C.ar         1    LIG   0.0000
  22 C22         -7.7184     7.8806    -0.6453 C.ar         1    LIG   0.0000
  23 C23         -8.8019     7.9442    -1.5154 C.ar         1    LIG   0.0000
  24 F24         -9.2553     9.1305    -1.9100 F            1    LIG   0.0000
  25 C25         -9.4215     6.7895    -1.9819 C.ar         1    LIG   0.0000
  26 C26         -8.9448     5.5496    -1.5684 C.ar         1    LIG   0.0000
  27 N27         -8.0902     3.2520     0.4114 N.pl3        1    LIG   0.0000
  28 C28         -7.2585     2.1929     0.6147 C.2          1    LIG   0.0000
  29 C29         -7.6260     0.8902     1.3053 C.3          1    LIG   0.0000
  30 C30         -9.0270     0.4105     0.9429 C.3          1    LIG   0.0000
  31 C31        -10.1420     1.0678     1.7449 C.3          1    LIG   0.0000
  32 C32         -9.8314     2.5179     2.0957 C.3          1    LIG   0.0000
  33 C33         -9.4947     3.3393     0.8577 C.3          1    LIG   0.0000
  34 C34         -0.0137    -0.0137    -0.0015 C.ar         1    LIG   0.0000
  35 C35          1.2016    -0.6895    -0.0163 C.ar         1    LIG   0.0000
  36 H            4.9037     1.0345    -2.5077 H            1    LIG   0.0000
  37 H            6.2975     1.7920    -2.1200 H            1    LIG   0.0000
  38 H            6.1289     1.0923    -3.5858 H            1    LIG   0.0000
  39 H            5.9637    -2.0657    -1.1496 H            1    LIG   0.0000
  40 H            3.6623    -1.7336    -1.8481 H            1    LIG   0.0000
  41 H            3.9475    -0.1352    -2.0217 H            1    LIG   0.0000
  42 H            3.6200    -1.5933     0.4270 H            1    LIG   0.0000
  43 H            4.4146    -0.1667     0.4342 H            1    LIG   0.0000
  44 H            3.2436     1.9243    -0.0092 H            1    LIG   0.0000
  45 H            1.1552     3.1001     0.0158 H            1    LIG   0.0000
  46 H           -2.6400     0.7399    -0.7920 H            1    LIG   0.0000
  47 H           -2.6278     0.7265     0.8409 H            1    LIG   0.0000
  48 H           -6.4714     6.5759     0.3889 H            1    LIG   0.0000
  49 H           -7.2823     8.7187    -0.3176 H            1    LIG   0.0000
  50 H          -10.1999     6.8499    -2.6068 H            1    LIG   0.0000
  51 H           -9.3806     4.7115    -1.8966 H            1    LIG   0.0000
  52 H           -7.5805     1.0281     2.2947 H            1    LIG   0.0000
  53 H           -6.9672     0.1878     1.0360 H            1    LIG   0.0000
  54 H           -9.0698    -0.5765     1.0979 H            1    LIG   0.0000
  55 H           -9.1829     0.6028    -0.0260 H            1    LIG   0.0000
  56 H          -10.9836     1.0416     1.2053 H            1    LIG   0.0000
  57 H          -10.2734     0.5538     2.5925 H            1    LIG   0.0000
  58 H          -10.6293     2.9205     2.5442 H            1    LIG   0.0000
  59 H           -9.0512     2.5397     2.7208 H            1    LIG   0.0000
  60 H          -10.0779     3.0244     0.1089 H            1    LIG   0.0000
  61 H           -9.6973     4.2980     1.0575 H            1    LIG   0.0000
  62 H           -0.8750    -0.5218     0.0008 H            1    LIG   0.0000
  63 H            1.2177    -1.6893    -0.0240 H            1    LIG   0.0000
@<TRIPOS>BOND
   1        1        2 1
   2        2        3 2
   3        2        4 am
   4        4        5 1
   5        5        6 1
   6        6        7 1
   7        7        8 ar
   8        8        9 ar
   9        9       10 ar
  10       10       11 1
  11       11       12 2
  12       11       13 1
  13       13       14 1
  14       14       15 1
  15       15       16 2
  16       15       17 1
  17       17       18 1
  18       18       19 2
  19       19       20 1
  20       20       21 ar
  21       21       22 ar
  22       22       23 ar
  23       23       24 1
  24       23       25 ar
  25       25       26 ar
  26       26       20 ar
  27       19       27 1
  28       27       28 1
  29       28       17 2
  30       28       29 1
  31       29       30 1
  32       30       31 1
  33       31       32 1
  34       32       33 1
  35       33       27 1
  36       10       34 ar
  37       34       35 ar
  38       35        7 ar
  39        1       36 1
  40        1       37 1
  41        1       38 1
  42        4       39 1
  43        5       40 1
  44        5       41 1
  45        6       42 1
  46        6       43 1
  47        8       44 1
  48        9       45 1
  49       13       46 1
  50       13       47 1
  51       21       48 1
  52       22       49 1
  53       25       50 1
  54       26       51 1
  55       29       52 1
  56       29       53 1
  57       30       54 1
  58       30       55 1
  59       31       56 1
  60       31       57 1
  61       32       58 1
  62       32       59 1
  63       33       60 1
  64       33       61 1
  65       34       62 1
  66       35       63 1

@<TRIPOS>MOLECULE

  63   66
SMALL
USER_CHARGES
@<TRIPOS>ATOM
   1 C1           6.5952     0.6908     2.9698 C.3          1    LIG   0.0000
   2 C2           6.7960    -0.5218     2.0756 C.2          1    LIG   0.0000
   3 O3           7.8388    -1.1154     2.0947 O.2          1    LIG   0.0000
   4 N4           5.7865    -0.9372     1.2478 N.am         1    LIG   0.0000
   5 C5           4.7062    -0.0094     0.8832 C.3          1    LIG   0.0000
   6 C6           3.7226    -0.7135    -0.0371 C.3          1    LIG   0.0000
   7 C7           2.3953     0.0257    -0.0205 C.ar         1    LIG   0.0000
   8 C8           2.3824     1.4162    -0.0077 C.ar         1    LIG   0.0000
   9 C9           1.1712     2.1003     0.0072 C.ar         1    LIG   0.0000
  10 C10         -0.0173     1.3776     0.0102 C.ar         1    LIG   0.0000
  11 C11         -1.2821     2.0859     0.0254 C.2          1    LIG   0.0000
  12 O12         -1.2978     3.2858     0.0354 O.2          1    LIG   0.0000
  13 C13         -2.5884     1.3088     0.0288 C.3          1    LIG   0.0000
  14 O14         -3.6796     2.2173     0.0444 O.3          1    LIG   0.0000
  15 C15         -4.8696     1.6694     0.0488 C.2          1    LIG   0.0000
  16 O16         -4.9800     0.4746     0.0399 O.2          1    LIG   0.0000
  17 C17         -6.0536     2.5071     0.0645 C.2          1    LIG   0.0000
  18 N18         -6.1442     3.7502    -0.4796 N.2          1    LIG   0.0000
  19 C19         -7.3656     4.1835    -0.2667 C.2          1    LIG   0.0000
  20 C20         -7.8621     5.4758    -0.6987 C.ar         1    LIG   0.0000
  21 C21         -7.2492     6.6363    -0.2367 C.ar         1    LIG   0.0000
  22 C22         -7.7184     7.8806    -0.6453 C.ar         1    LIG   0.0000
  23 C23         -8.8019     7.9442    -1.5154 C.ar         1    LIG   0.0000
  24 F24         -9.2553     9.1305    -1.9100 F            1    LIG   0.0000
  25 C25         -9.4215     6.7895    -1.9819 C.ar         1    LIG   0.0000
  26 C26         -8.9448     5.5496    -1.5684 C.ar         1    LIG   0.0000
  27 N27         -8.0902     3.2520     0.4114 N.pl3        1    LIG   0.0000
  28 C28         -7.2585     2.1929     0.6147 C.2          1    LIG   0.0000
  29 C29         -7.6260     0.8902     1.3053 C.3          1    LIG   0.0000
  30 C30         -9.0270     0.4105     0.9429 C.3          1    LIG   0.0000
  31 C31        -10.1420     1.0678     1.7449 C.3          1    LIG   0.0000
  32 C32         -9.8314     2.5179     2.0957 C.3          1    LIG   0.0000
  33 C33         -9.4947     3.3393     0.8577 C.3          1    LIG   0.0000
  34 C34         -0.0137    -0.0137    -0.0015 C.ar         1    LIG   0.0000
  35 C35          1.2016    -0.6895    -0.0163 C.ar         1    LIG   0.0000
  36 H            5.6771     1.0609     2.8282 H            1    LIG   0.0000
  37 H            6.7019     0.4207     3.9267 H            1    LIG   0.0000
  38 H            7.2746     1.3886     2.7427 H            1    LIG   0.0000
  39 H            5.7846    -1.8716     0.8915 H            1    LIG   0.0000
  40 H            5.0928     0.7843     0.4134 H            1    LIG   0.0000
  41 H            4.2318     0.2915     1.7105 H            1    LIG   0.0000
  42 H            4.0865    -0.7241    -0.9685 H            1    LIG   0.0000
  43 H            3.5851    -1.6526     0.2778 H            1    LIG   0.0000
  44 H            3.2436     1.9243    -0.0092 H            1    LIG   0.0000
  45 H            1.1552     3.1001     0.0158 H            1    LIG   0.0000
  46 H           -2.6400     0.7399    -0.7920 H            1    LIG   0.0000
  47 H           -2.6278     0.7265     0.8409 H            1    LIG   0.0000
  48 H           -6.4714     6.5759     0.3889 H            1    LIG   0.0000
  49 H           -7.2823     8.7187    -0.3176 H            1    LIG   0.0000
  50 H          -10.1999     6.8499    -2.6068 H            1    LIG   0.0000
  51 H           -9.3806     4.7115    -1.8966 H            1    LIG   0.0000
  52 H           -7.5805     1.0281     2.2947 H            1    LIG   0.0000
  53 H           -6.9672     0.1878     1.0360 H            1    LIG   0.0000
  54 H           -9.0698    -0.5765     1.0979 H            1    LIG   0.0000
  55 H           -9.1829     0.6028    -0.0260 H            1    LIG   0.0000
  56 H          -10.9836     1.0416     1.2053 H            1    LIG   0.0000
  57 H          -10.2734     0.5538     2.5925 H            1    LIG   0.0000
  58 H          -10.6293     2.9205     2.5442 H            1    LIG   0.0000
  59 H           -9.0512     2.5397     2.7208 H            1    LIG   0.0000
  60 H          -10.0779     3.0244     0.1089 H            1    LIG   0.0000
  61 H           -9.6973     4.2980     1.0575 H            1    LIG   0.0000
  62 H           -0.8750    -0.5218     0.0008 H            1    LIG   0.0000
  63 H            1.2177    -1.6893    -0.0240 H            1    LIG   0.0000
@<TRIPOS>BOND
   1        1        2 1
   2        2        3 2
   3        2        4 am
   4        4        5 1
   5        5        6 1
   6        6        7 1
   7        7        8 ar
   8        8        9 ar
   9        9       10 ar
  10       10       11 1
  11       11       12 2
  12       11       13 1
  13       13       14 1
  14       14       15 1
  15       15       16 2
  16       15       17 1
  17       17       18 1
  18       18       19 2
  19       19       20 1
  20       20       21 ar
  21       21       22 ar
  22       22       23 ar
  23       23       24 1
  24       23       25 ar
  25       25       26 ar
  26       26       20 ar
  27       19       27 1
  28       27       28 1
  29       28       17 2
  30       28       29 1
  31       29       30 1
  32       30       31 1
  33       31       32 1
  34       32       33 1
  35       33       27 1
  36       10       34 ar
  37       34       35 ar
  38       35        7 ar
  39        1       36 1
  40        1       37 1
  41        1       38 1
  42        4       39 1
  43        5       40 1
  44        5       41 1
  45        6       42 1
  46        6       43 1
  47        8       44 1
  48        9       45 1
  49       13       46 1
  50       13       47 1
  51       21       48 1
  52       22       49 1
  53       25       50 1
  54       26       51 1
  55       29       52 1
  56       29       53 1
  57       30       54 1
  58       30       55 1
  59       31       56 1
  60       31       57 1
  61       32       58 1
  62       32       59 1
  63       33       60 1
  64       33       61 1
  65       34       62 1
  66       35       63 1

@<TRIPOS>MOLECULE

  63   66
SMALL
USER_CHARGES
@<TRIPOS>ATOM
   1 C1           2.7714    -3.5905     1.1904 C.3          1    LIG   0.0000
   2 C2           4.1295    -3.7892     0.5372 C.2          1    LIG   0.0000
   3 O3           4.8602    -4.6586     0.9247 O.2          1    LIG   0.0000
   4 N4           4.5193    -2.9757    -0.4939 N.am         1    LIG   0.0000
   5 C5           3.6242    -1.9106    -0.9686 C.3          1    LIG   0.0000
   6 C6           3.7226    -0.7135    -0.0371 C.3          1    LIG   0.0000
   7 C7           2.3953     0.0257    -0.0205 C.ar         1    LIG   0.0000
   8 C8           2.3824     1.4162    -0.0077 C.ar         1    LIG   0.0000
   9 C9           1.1712     2.1003     0.0072 C.ar         1    LIG   0.0000
  10 C10         -0.0173     1.3776     0.0102 C.ar         1    LIG   0.0000
  11 C11         -1.2821     2.0859     0.0254 C.2          1    LIG   0.0000
  12 O12         -1.2978     3.2858     0.0354 O.2          1    LIG   0.0000
  13 C13         -2.5884     1.3088     0.0288 C.3          1    LIG   0.0000
  14 O14         -3.6796     2.2173     0.0444 O.3          1    LIG   0.0000
  15 C15         -4.8696     1.6694     0.0488 C.2          1    LIG   0.0000
  16 O16         -4.9800     0.4746     0.0399 O.2          1    LIG   0.0000
  17 C17         -6.0536     2.5071     0.0645 C.2          1    LIG   0.0000
  18 N18         -6.1359     3.7411     0.6301 N.2          1    LIG   0.0000
  19 C19         -7.3591     4.1795     0.4388 C.2          1    LIG   0.0000
  20 C20         -7.8473     5.4669     0.8942 C.ar         1    LIG   0.0000
  21 C21         -7.3091     6.0381     2.0431 C.ar         1    LIG   0.0000
  22 C22         -7.7710     7.2726     2.4880 C.ar         1    LIG   0.0000
  23 C23         -8.7721     7.9202     1.7713 C.ar         1    LIG   0.0000
  24 F24         -9.2181     9.1007     2.1911 F            1    LIG   0.0000
  25 C25         -9.3167     7.3567     0.6221 C.ar         1    LIG   0.0000
  26 C26         -8.8479     6.1221     0.1844 C.ar         1    LIG   0.0000
  27 N27         -8.0940     3.2588    -0.2428 N.pl3        1    LIG   0.0000
  28 C28         -7.2640     2.2057    -0.4808 C.2          1    LIG   0.0000
  29 C29         -7.6238     0.9411    -1.2426 C.3          1    LIG   0.0000
  30 C30         -8.4996     1.2196    -2.4590 C.3          1    LIG   0.0000
  31 C31         -9.9820     1.3668    -2.1440 C.3          1    LIG   0.0000
  32 C32        -10.2285     2.0106    -0.7850 C.3          1    LIG   0.0000
  33 C33         -9.5093     3.3471    -0.6539 C.3          1    LIG   0.0000
  34 C34         -0.0137    -0.0137    -0.0015 C.ar         1    LIG   0.0000
  35 C35          1.2016    -0.6895    -0.0163 C.ar         1    LIG   0.0000
  36 H            2.2971    -2.8293     0.7481 H            1    LIG   0.0000
  37 H            2.2286    -4.4244     1.0910 H            1    LIG   0.0000
  38 H            2.8952    -3.3870     2.1616 H            1    LIG   0.0000
  39 H            5.4128    -3.1064    -0.9236 H            1    LIG   0.0000
  40 H            2.6826    -2.2472    -0.9805 H            1    LIG   0.0000
  41 H            3.8921    -1.6371    -1.8924 H            1    LIG   0.0000
  42 H            3.9410    -1.0272     0.8869 H            1    LIG   0.0000
  43 H            4.4425    -0.0987    -0.3593 H            1    LIG   0.0000
  44 H            3.2436     1.9243    -0.0092 H            1    LIG   0.0000
  45 H            1.1552     3.1001     0.0158 H            1    LIG   0.0000
  46 H           -2.6400     0.7399    -0.7920 H            1    LIG   0.0000
  47 H           -2.6278     0.7265     0.8409 H            1    LIG   0.0000
  48 H           -6.5902     5.5613     2.5489 H            1    LIG   0.0000
  49 H           -7.3883     7.6892     3.3126 H            1    LIG   0.0000
  50 H          -10.0363     7.8330     0.1168 H            1    LIG   0.0000
  51 H           -9.2303     5.7058    -0.6405 H            1    LIG   0.0000
  52 H           -8.1163     0.3256    -0.6274 H            1    LIG   0.0000
  53 H           -6.7800     0.5008    -1.5494 H            1    LIG   0.0000
  54 H           -8.3901     0.4629    -3.1035 H            1    LIG   0.0000
  55 H           -8.1842     2.0680    -2.8842 H            1    LIG   0.0000
  56 H          -10.4050     1.9353    -2.8497 H            1    LIG   0.0000
  57 H          -10.4028     0.4597    -2.1502 H            1    LIG   0.0000
  58 H          -11.2107     2.1589    -0.6704 H            1    LIG   0.0000
  59 H           -9.8988     1.3940    -0.0701 H            1    LIG   0.0000
  60 H           -9.5461     3.8071    -1.5410 H            1    LIG   0.0000
  61 H           -9.9958     3.8954     0.0263 H            1    LIG   0.0000
  62 H           -0.8750    -0.5218     0.0008 H            1    LIG   0.0000
  63 H            1.2177    -1.6893    -0.0240 H            1    LIG   0.0000
@<TRIPOS>BOND
   1        1        2 1
   2        2        3 2
   3        2        4 am
   4        4        5 1
   5        5        6 1
   6        6        7 1
   7        7        8 ar
   8        8        9 ar
   9        9       10 ar
  10       10       11 1
  11       11       12 2
  12       11       13 1
  13       13       14 1
  14       14       15 1
  15       15       16 2
  16       15       17 1
  17       17       18 1
  18       18       19 2
  19       19       20 1
  20       20       21 ar
  21       21       22 ar
  22       22       23 ar
  23       23       24 1
  24       23       25 ar
  25       25       26 ar
  26       26       20 ar
  27       19       27 1
  28       27       28 1
  29       28       17 2
  30       28       29 1
  31       29       30 1
  32       30       31 1
  33       31       32 1
  34       32       33 1
  35       33       27 1
  36       10       34 ar
  37       34       35 ar
  38       35        7 ar
  39        1       36 1
  40        1       37 1
  41        1       38 1
  42        4       39 1
  43        5       40 1
  44        5       41 1
  45        6       42 1
  46        6       43 1
  47        8       44 1
  48        9       45 1
  49       13       46 1
  50       13       47 1
  51       21       48 1
  52       22       49 1
  53       25       50 1
  54       26       51 1
  55       29       52 1
  56       29       53 1
  57       30       54 1
  58       30       55 1
  59       31       56 1
  60       31       57 1
  61       32       58 1
  62       32       59 1
  63       33       60 1
  64       33       61 1
  65       34       62 1
  66       35       63 1

@<TRIPOS>MOLECULE

  63   66
SMALL
USER_CHARGES
@<TRIPOS>ATOM
   1 C1           8.0040    -0.4649     1.3647 C.3          1    LIG   0.0000
   2 C2           6.5086    -0.1930     1.3495 C.2          1    LIG   0.0000
   3 O3           6.1045     0.9353     1.2889 O.2          1    LIG   0.0000
   4 N4           5.6221    -1.2361     1.4050 N.am         1    LIG   0.0000
   5 C5           4.1759    -0.9731     1.3903 C.3          1    LIG   0.0000
   6 C6           3.7226    -0.7135    -0.0371 C.3          1    LIG   0.0000
   7 C7           2.3953     0.0257    -0.0205 C.ar         1    LIG   0.0000
   8 C8           2.3824     1.4162    -0.0077 C.ar         1    LIG   0.0000
   9 C9           1.1712     2.1003     0.0072 C.ar         1    LIG   0.0000
  10 C10         -0.0173     1.3776     0.0102 C.ar         1    LIG   0.0000
  11 C11         -1.2821     2.0859     0.0254 C.2          1    LIG   0.0000
  12 O12         -1.2978     3.2858     0.0354 O.2          1    LIG   0.0000
  13 C13         -2.5884     1.3088     0.0288 C.3          1    LIG   0.0000
  14 O14         -3.6796     2.2173     0.0444 O.3          1    LIG   0.0000
  15 C15         -4.8696     1.6694     0.0488 C.2          1    LIG   0.0000
  16 O16         -4.9800     0.4746     0.0399 O.2          1    LIG   0.0000
  17 C17         -6.0536     2.5071     0.0645 C.2          1    LIG   0.0000
  18 N18         -6.1359     3.7411     0.6301 N.2          1    LIG   0.0000
  19 C19         -7.3591     4.1795     0.4388 C.2          1    LIG   0.0000
  20 C20         -7.8473     5.4669     0.8942 C.ar         1    LIG   0.0000
  21 C21         -7.3091     6.0381     2.0431 C.ar         1    LIG   0.0000
  22 C22         -7.7710     7.2726     2.4880 C.ar         1    LIG   0.0000
  23 C23         -8.7721     7.9202     1.7713 C.ar         1    LIG   0.0000
  24 F24         -9.2181     9.1007     2.1911 F            1    LIG   0.0000
  25 C25         -9.3167     7.3567     0.6221 C.ar         1    LIG   0.0000
  26 C26         -8.8479     6.1221     0.1844 C.ar         1    LIG   0.0000
  27 N27         -8.0940     3.2588    -0.2428 N.pl3        1    LIG   0.0000
  28 C28         -7.2640     2.2057    -0.4808 C.2          1    LIG   0.0000
  29 C29         -7.6238     0.9411    -1.2426 C.3          1    LIG   0.0000
  30 C30         -8.4996     1.2196    -2.4590 C.3          1    LIG   0.0000
  31 C31         -9.9820     1.3668    -2.1440 C.3          1    LIG   0.0000
  32 C32        -10.2285     2.0106    -0.7850 C.3          1    LIG   0.0000
  33 C33         -9.5093     3.3471    -0.6539 C.3          1    LIG   0.0000
  34 C34         -0.0137    -0.0137    -0.0015 C.ar         1    LIG   0.0000
  35 C35          1.2016    -0.6895    -0.0163 C.ar         1    LIG   0.0000
  36 H            8.1630    -1.4508     1.4176 H            1    LIG   0.0000
  37 H            8.4167    -0.1051     0.5279 H            1    LIG   0.0000
  38 H            8.4160    -0.0178     2.1586 H            1    LIG   0.0000
  39 H            5.9588    -2.1763     1.4555 H            1    LIG   0.0000
  40 H            3.9771    -0.1715     1.9541 H            1    LIG   0.0000
  41 H            3.6890    -1.7666     1.7555 H            1    LIG   0.0000
  42 H            4.4076    -0.1580    -0.5086 H            1    LIG   0.0000
  43 H            3.6130    -1.5847    -0.5157 H            1    LIG   0.0000
  44 H            3.2436     1.9243    -0.0092 H            1    LIG   0.0000
  45 H            1.1552     3.1001     0.0158 H            1    LIG   0.0000
  46 H           -2.6400     0.7399    -0.7920 H            1    LIG   0.0000
  47 H           -2.6278     0.7265     0.8409 H            1    LIG   0.0000
  48 H           -6.5902     5.5613     2.5489 H            1    LIG   0.0000
  49 H           -7.3883     7.6892     3.3126 H            1    LIG   0.0000
  50 H          -10.0363     7.8330     0.1168 H            1    LIG   0.0000
  51 H           -9.2303     5.7058    -0.6405 H            1    LIG   0.0000
  52 H           -8.1163     0.3256    -0.6274 H            1    LIG   0.0000
  53 H           -6.7800     0.5008    -1.5494 H            1    LIG   0.0000
  54 H           -8.3901     0.4629    -3.1035 H            1    LIG   0.0000
  55 H           -8.1842     2.0680    -2.8842 H            1    LIG   0.0000
  56 H          -10.4050     1.9353    -2.8497 H            1    LIG   0.0000
  57 H          -10.4028     0.4597    -2.1502 H            1    LIG   0.0000
  58 H          -11.2107     2.1589    -0.6704 H            1    LIG   0.0000
  59 H           -9.8988     1.3940    -0.0701 H            1    LIG   0.0000
  60 H           -9.5461     3.8071    -1.5410 H            1    LIG   0.0000
  61 H           -9.9958     3.8954     0.0263 H            1    LIG   0.0000
  62 H           -0.8750    -0.5218     0.0008 H            1    LIG   0.0000
  63 H            1.2177    -1.6893    -0.0240 H            1    LIG   0.0000
@<TRIPOS>BOND
   1        1        2 1
   2        2        3 2
   3        2        4 am
   4        4        5 1
   5        5        6 1
   6        6        7 1
   7        7        8 ar
   8        8        9 ar
   9        9       10 ar
  10       10       11 1
  11       11       12 2
  12       11       13 1
  13       13       14 1
  14       14       15 1
  15       15       16 2
  16       15       17 1
  17       17       18 1
  18       18       19 2
  19       19       20 1
  20       20       21 ar
  21       21       22 ar
  22       22       23 ar
  23       23       24 1
  24       23       25 ar
  25       25       26 ar
  26       26       20 ar
  27       19       27 1
  28       27       28 1
  29       28       17 2
  30       28       29 1
  31       29       30 1
  32       30       31 1
  33       31       32 1
  34       32       33 1
  35       33       27 1
  36       10       34 ar
  37       34       35 ar
  38       35        7 ar
  39        1       36 1
  40        1       37 1
  41        1       38 1
  42        4       39 1
  43        5       40 1
  44        5       41 1
  45        6       42 1
  46        6       43 1
  47        8       44 1
  48        9       45 1
  49       13       46 1
  50       13       47 1
  51       21       48 1
  52       22       49 1
  53       25       50 1
  54       26       51 1
  55       29       52 1
  56       29       53 1
  57       30       54 1
  58       30       55 1
  59       31       56 1
  60       31       57 1
  61       32       58 1
  62       32       59 1
  63       33       60 1
  64       33       61 1
  65       34       62 1
  66       35       63 1

