@<TRIPOS>MOLECULE
*****
 63 66 0 0 0
SMALL
USER_CHARGES

@<TRIPOS>ATOM
      1 C1          6.7981   -3.7575   -1.3150 C.3     1  LIG1        0.0000
      2 C2          5.4702   -3.0180   -1.2983 C.2     1  LIG1        0.0000
      3 O3          4.4494   -3.6218   -1.1158 O.2     1  LIG1        0.0000
      4 N4          5.4388   -1.6621   -1.4917 N.am    1  LIG1        0.0000
      5 C5          4.1546   -0.9469   -1.4757 C.3     1  LIG1        0.0000
      6 C6          3.7226   -0.7135   -0.0371 C.3     1  LIG1        0.0000
      7 C7          2.3953    0.0257   -0.0205 C.3     1  LIG1        0.0000
      8 C8          2.3824    1.4162   -0.0077 C.3     1  LIG1        0.0000
      9 C9          1.1712    2.1003    0.0072 C.3     1  LIG1        0.0000
     10 C10        -0.0173    1.3776    0.0102 C.3     1  LIG1        0.0000
     11 C11        -1.2821    2.0859    0.0254 C.2     1  LIG1        0.0000
     12 O12        -1.2978    3.2858    0.0354 O.2     1  LIG1        0.0000
     13 C13        -2.5884    1.3088    0.0288 C.3     1  LIG1        0.0000
     14 O14        -3.6796    2.2173    0.0444 O.3     1  LIG1        0.0000
     15 C15        -4.8696    1.6694    0.0488 C.2     1  LIG1        0.0000
     16 O16        -4.9800    0.4746    0.0399 O.2     1  LIG1        0.0000
     17 C17        -6.0536    2.5071    0.0645 C.2     1  LIG1        0.0000
     18 N18        -7.3362    2.0551    0.0704 N.2     1  LIG1        0.0000
     19 C19        -8.1227    3.1068    0.0870 C.2     1  LIG1        0.0000
     20 C20        -9.5715    3.0447    0.1002 C.3     1  LIG1        0.0000
     21 C21       -10.2185    1.9737   -0.5081 C.3     1  LIG1        0.0000
     22 C22       -11.6080    1.9053   -0.5009 C.3     1  LIG1        0.0000
     23 C23       -12.3332    2.9178    0.1188 C.3     1  LIG1        0.0000
     24 F24       -13.6617    2.8585    0.1295 F       1  LIG1        0.0000
     25 C25       -11.6953    3.9928    0.7290 C.3     1  LIG1        0.0000
     26 C26       -10.3053    4.0521    0.7173 C.3     1  LIG1        0.0000
     27 N27        -7.3870    4.2519    0.0905 N.pl3   1  LIG1        0.0000
     28 C28        -6.0804    3.8681    0.0805 C.2     1  LIG1        0.0000
     29 C29        -4.8780    4.7967    0.1113 C.3     1  LIG1        0.0000
     30 C30        -5.0808    5.9863    1.0428 C.3     1  LIG1        0.0000
     31 C31        -5.8650    7.1377    0.4282 C.3     1  LIG1        0.0000
     32 C32        -6.9357    6.6602   -0.5453 C.3     1  LIG1        0.0000
     33 C33        -7.8728    5.6460    0.0981 C.3     1  LIG1        0.0000
     34 C34        -0.0137   -0.0137   -0.0015 C.3     1  LIG1        0.0000
     35 C35         1.2016   -0.6895   -0.0163 C.3     1  LIG1        0.0000
     36 H           7.5398   -3.1070   -1.4782 H       1  LIG1        0.0000
     37 H           6.9390   -4.2094   -0.4341 H       1  LIG1        0.0000
     38 H           6.7890   -4.4425   -2.0434 H       1  LIG1        0.0000
     39 H           6.2894   -1.1588   -1.6438 H       1  LIG1        0.0000
     40 H           3.4626   -1.4937   -1.9470 H       1  LIG1        0.0000
     41 H           4.2571   -0.0671   -1.9398 H       1  LIG1        0.0000
     42 H           3.6200   -1.5933    0.4270 H       1  LIG1        0.0000
     43 H           4.4146   -0.1667    0.4342 H       1  LIG1        0.0000
     44 H           3.2436    1.9243   -0.0092 H       1  LIG1        0.0000
     45 H           1.1552    3.1001    0.0158 H       1  LIG1        0.0000
     46 H          -2.6400    0.7399   -0.7920 H       1  LIG1        0.0000
     47 H          -2.6278    0.7265    0.8409 H       1  LIG1        0.0000
     48 H          -9.6847    1.2530   -0.9505 H       1  LIG1        0.0000
     49 H         -12.0795    1.1381   -0.9358 H       1  LIG1        0.0000
     50 H         -12.2290    4.7140    1.1705 H       1  LIG1        0.0000
     51 H          -9.8339    4.8191    1.1527 H       1  LIG1        0.0000
     52 H          -4.7135    5.1387   -0.8140 H       1  LIG1        0.0000
     53 H          -4.0810    4.2788    0.4218 H       1  LIG1        0.0000
     54 H          -4.1811    6.3293    1.3130 H       1  LIG1        0.0000
     55 H          -5.5736    5.6691    1.8530 H       1  LIG1        0.0000
     56 H          -6.3063    7.6534    1.1626 H       1  LIG1        0.0000
     57 H          -5.2288    7.7337   -0.0618 H       1  LIG1        0.0000
     58 H          -7.4711    7.4480   -0.8497 H       1  LIG1        0.0000
     59 H          -6.4904    6.2351   -1.3333 H       1  LIG1        0.0000
     60 H          -8.0181    5.9183    1.0493 H       1  LIG1        0.0000
     61 H          -8.7434    5.6734   -0.3931 H       1  LIG1        0.0000
     62 H          -0.8750   -0.5218    0.0008 H       1  LIG1        0.0000
     63 H           1.2177   -1.6893   -0.0240 H       1  LIG1        0.0000
@<TRIPOS>BOND
     1     1     2    1
     2     2     3    2
     3     2     4   am
     4     4     5    1
     5     5     6    1
     6     6     7    1
     7     7     8   ar
     8     8     9   ar
     9     9    10   ar
    10    10    11    1
    11    11    12    2
    12    11    13    1
    13    13    14    1
    14    14    15    1
    15    15    16    2
    16    15    17    1
    17    17    18    1
    18    18    19    2
    19    19    20    1
    20    20    21   ar
    21    21    22   ar
    22    22    23   ar
    23    23    24    1
    24    23    25   ar
    25    25    26   ar
    26    26    20   ar
    27    19    27    1
    28    27    28    1
    29    28    17    2
    30    28    29    1
    31    29    30    1
    32    30    31    1
    33    31    32    1
    34    32    33    1
    35    33    27    1
    36    10    34   ar
    37    34    35   ar
    38    35     7   ar
    39     1    36    1
    40     1    37    1
    41     1    38    1
    42     4    39    1
    43     5    40    1
    44     5    41    1
    45     6    42    1
    46     6    43    1
    47     8    44    1
    48     9    45    1
    49    13    46    1
    50    13    47    1
    51    21    48    1
    52    22    49    1
    53    25    50    1
    54    26    51    1
    55    29    52    1
    56    29    53    1
    57    30    54    1
    58    30    55    1
    59    31    56    1
    60    31    57    1
    61    32    58    1
    62    32    59    1
    63    33    60    1
    64    33    61    1
    65    34    62    1
    66    35    63    1
