@<TRIPOS>MOLECULE
*****
 63 66 0 0 0
SMALL
USER_CHARGES

@<TRIPOS>ATOM
      1 C1          4.2830   -3.6859   -3.2178 C.3     1  LIG1        0.0000
      2 C2          5.3937   -3.1319   -2.3404 C.2     1  LIG1        0.0000
      3 O3          6.5352   -3.4322   -2.5565 O.2     1  LIG1        0.0000
      4 N4          5.0915   -2.2898   -1.3029 N.am    1  LIG1        0.0000
      5 C5          3.8073   -1.5746   -1.2868 C.3     1  LIG1        0.0000
      6 C6          3.7226   -0.7135   -0.0371 C.3     1  LIG1        0.0000
      7 C7          2.3953    0.0257   -0.0205 C.3     1  LIG1        0.0000
      8 C8          2.3824    1.4162   -0.0077 C.3     1  LIG1        0.0000
      9 C9          1.1712    2.1003    0.0072 C.3     1  LIG1        0.0000
     10 C10        -0.0173    1.3776    0.0102 C.3     1  LIG1        0.0000
     11 C11        -1.2821    2.0859    0.0254 C.2     1  LIG1        0.0000
     12 O12        -1.2978    3.2858    0.0354 O.2     1  LIG1        0.0000
     13 C13        -2.5884    1.3088    0.0288 C.3     1  LIG1        0.0000
     14 O14        -3.6796    2.2173    0.0444 O.3     1  LIG1        0.0000
     15 C15        -4.8696    1.6694    0.0488 C.2     1  LIG1        0.0000
     16 O16        -4.9800    0.4746    0.0399 O.2     1  LIG1        0.0000
     17 C17        -6.0536    2.5071    0.0645 C.2     1  LIG1        0.0000
     18 N18        -6.1442    3.7502   -0.4796 N.2     1  LIG1        0.0000
     19 C19        -7.3656    4.1835   -0.2667 C.2     1  LIG1        0.0000
     20 C20        -7.8621    5.4758   -0.6987 C.3     1  LIG1        0.0000
     21 C21        -7.8654    5.7923   -2.0535 C.3     1  LIG1        0.0000
     22 C22        -8.3395    7.0295   -2.4777 C.3     1  LIG1        0.0000
     23 C23        -8.8055    7.9372   -1.5321 C.3     1  LIG1        0.0000
     24 F24        -9.2602    9.1216   -1.9309 F       1  LIG1        0.0000
     25 C25        -8.8055    7.6301   -0.1755 C.3     1  LIG1        0.0000
     26 C26        -8.3301    6.3900    0.2391 C.3     1  LIG1        0.0000
     27 N27        -8.0902    3.2520    0.4114 N.pl3   1  LIG1        0.0000
     28 C28        -7.2585    2.1929    0.6147 C.2     1  LIG1        0.0000
     29 C29        -7.6260    0.8902    1.3053 C.3     1  LIG1        0.0000
     30 C30        -9.0270    0.4105    0.9429 C.3     1  LIG1        0.0000
     31 C31       -10.1420    1.0678    1.7449 C.3     1  LIG1        0.0000
     32 C32        -9.8314    2.5179    2.0957 C.3     1  LIG1        0.0000
     33 C33        -9.4947    3.3393    0.8577 C.3     1  LIG1        0.0000
     34 C34        -0.0137   -0.0137   -0.0015 C.3     1  LIG1        0.0000
     35 C35         1.2016   -0.6895   -0.0163 C.3     1  LIG1        0.0000
     36 H           3.4015   -3.3365   -2.9000 H       1  LIG1        0.0000
     37 H           4.4326   -3.4010   -4.1646 H       1  LIG1        0.0000
     38 H           4.2840   -4.6845   -3.1661 H       1  LIG1        0.0000
     39 H           5.7446   -2.1616   -0.5565 H       1  LIG1        0.0000
     40 H           3.0574   -2.2361   -1.2873 H       1  LIG1        0.0000
     41 H           3.7394   -0.9932   -2.0975 H       1  LIG1        0.0000
     42 H           3.7905   -1.2950    0.7736 H       1  LIG1        0.0000
     43 H           4.4725   -0.0520   -0.0367 H       1  LIG1        0.0000
     44 H           3.2436    1.9243   -0.0092 H       1  LIG1        0.0000
     45 H           1.1552    3.1001    0.0158 H       1  LIG1        0.0000
     46 H          -2.6400    0.7399   -0.7920 H       1  LIG1        0.0000
     47 H          -2.6278    0.7265    0.8409 H       1  LIG1        0.0000
     48 H          -7.5270    5.1304   -2.7224 H       1  LIG1        0.0000
     49 H          -8.3452    7.2633   -3.4499 H       1  LIG1        0.0000
     50 H          -9.1430    8.2923    0.4935 H       1  LIG1        0.0000
     51 H          -8.3249    6.1560    1.2113 H       1  LIG1        0.0000
     52 H          -7.5805    1.0281    2.2947 H       1  LIG1        0.0000
     53 H          -6.9672    0.1878    1.0360 H       1  LIG1        0.0000
     54 H          -9.0698   -0.5765    1.0979 H       1  LIG1        0.0000
     55 H          -9.1829    0.6028   -0.0260 H       1  LIG1        0.0000
     56 H         -10.9836    1.0416    1.2053 H       1  LIG1        0.0000
     57 H         -10.2734    0.5538    2.5925 H       1  LIG1        0.0000
     58 H         -10.6293    2.9205    2.5442 H       1  LIG1        0.0000
     59 H          -9.0512    2.5397    2.7208 H       1  LIG1        0.0000
     60 H         -10.0779    3.0244    0.1089 H       1  LIG1        0.0000
     61 H          -9.6973    4.2980    1.0575 H       1  LIG1        0.0000
     62 H          -0.8750   -0.5218    0.0008 H       1  LIG1        0.0000
     63 H           1.2177   -1.6893   -0.0240 H       1  LIG1        0.0000
@<TRIPOS>BOND
     1     1     2    1
     2     2     3    2
     3     2     4   am
     4     4     5    1
     5     5     6    1
     6     6     7    1
     7     7     8   ar
     8     8     9   ar
     9     9    10   ar
    10    10    11    1
    11    11    12    2
    12    11    13    1
    13    13    14    1
    14    14    15    1
    15    15    16    2
    16    15    17    1
    17    17    18    1
    18    18    19    2
    19    19    20    1
    20    20    21   ar
    21    21    22   ar
    22    22    23   ar
    23    23    24    1
    24    23    25   ar
    25    25    26   ar
    26    26    20   ar
    27    19    27    1
    28    27    28    1
    29    28    17    2
    30    28    29    1
    31    29    30    1
    32    30    31    1
    33    31    32    1
    34    32    33    1
    35    33    27    1
    36    10    34   ar
    37    34    35   ar
    38    35     7   ar
    39     1    36    1
    40     1    37    1
    41     1    38    1
    42     4    39    1
    43     5    40    1
    44     5    41    1
    45     6    42    1
    46     6    43    1
    47     8    44    1
    48     9    45    1
    49    13    46    1
    50    13    47    1
    51    21    48    1
    52    22    49    1
    53    25    50    1
    54    26    51    1
    55    29    52    1
    56    29    53    1
    57    30    54    1
    58    30    55    1
    59    31    56    1
    60    31    57    1
    61    32    58    1
    62    32    59    1
    63    33    60    1
    64    33    61    1
    65    34    62    1
    66    35    63    1
