@<TRIPOS>MOLECULE
*****
 63 66 0 0 0
SMALL
USER_CHARGES

@<TRIPOS>ATOM
      1 C1          8.0040   -0.4649    1.3647 C.3     1  LIG1        0.0000
      2 C2          6.5086   -0.1930    1.3495 C.2     1  LIG1        0.0000
      3 O3          6.1045    0.9353    1.2889 O.2     1  LIG1        0.0000
      4 N4          5.6221   -1.2361    1.4050 N.am    1  LIG1        0.0000
      5 C5          4.1759   -0.9731    1.3903 C.3     1  LIG1        0.0000
      6 C6          3.7226   -0.7135   -0.0371 C.3     1  LIG1        0.0000
      7 C7          2.3953    0.0257   -0.0205 C.3     1  LIG1        0.0000
      8 C8          2.3824    1.4162   -0.0077 C.3     1  LIG1        0.0000
      9 C9          1.1712    2.1003    0.0072 C.3     1  LIG1        0.0000
     10 C10        -0.0173    1.3776    0.0102 C.3     1  LIG1        0.0000
     11 C11        -1.2821    2.0859    0.0254 C.2     1  LIG1        0.0000
     12 O12        -1.2978    3.2858    0.0354 O.2     1  LIG1        0.0000
     13 C13        -2.5884    1.3088    0.0288 C.3     1  LIG1        0.0000
     14 O14        -3.6796    2.2173    0.0444 O.3     1  LIG1        0.0000
     15 C15        -4.8696    1.6694    0.0488 C.2     1  LIG1        0.0000
     16 O16        -4.9800    0.4746    0.0399 O.2     1  LIG1        0.0000
     17 C17        -6.0536    2.5071    0.0645 C.2     1  LIG1        0.0000
     18 N18        -6.1359    3.7411    0.6301 N.2     1  LIG1        0.0000
     19 C19        -7.3591    4.1795    0.4388 C.2     1  LIG1        0.0000
     20 C20        -7.8473    5.4669    0.8942 C.3     1  LIG1        0.0000
     21 C21        -7.3091    6.0381    2.0431 C.3     1  LIG1        0.0000
     22 C22        -7.7710    7.2726    2.4880 C.3     1  LIG1        0.0000
     23 C23        -8.7721    7.9202    1.7713 C.3     1  LIG1        0.0000
     24 F24        -9.2181    9.1007    2.1911 F       1  LIG1        0.0000
     25 C25        -9.3167    7.3567    0.6221 C.3     1  LIG1        0.0000
     26 C26        -8.8479    6.1221    0.1844 C.3     1  LIG1        0.0000
     27 N27        -8.0940    3.2588   -0.2428 N.pl3   1  LIG1        0.0000
     28 C28        -7.2640    2.2057   -0.4808 C.2     1  LIG1        0.0000
     29 C29        -7.6238    0.9411   -1.2426 C.3     1  LIG1        0.0000
     30 C30        -8.4996    1.2196   -2.4590 C.3     1  LIG1        0.0000
     31 C31        -9.9820    1.3668   -2.1440 C.3     1  LIG1        0.0000
     32 C32       -10.2285    2.0106   -0.7850 C.3     1  LIG1        0.0000
     33 C33        -9.5093    3.3471   -0.6539 C.3     1  LIG1        0.0000
     34 C34        -0.0137   -0.0137   -0.0015 C.3     1  LIG1        0.0000
     35 C35         1.2016   -0.6895   -0.0163 C.3     1  LIG1        0.0000
     36 H           8.1630   -1.4508    1.4176 H       1  LIG1        0.0000
     37 H           8.4167   -0.1051    0.5279 H       1  LIG1        0.0000
     38 H           8.4160   -0.0178    2.1586 H       1  LIG1        0.0000
     39 H           5.9588   -2.1763    1.4555 H       1  LIG1        0.0000
     40 H           3.9771   -0.1715    1.9541 H       1  LIG1        0.0000
     41 H           3.6890   -1.7666    1.7555 H       1  LIG1        0.0000
     42 H           4.4076   -0.1580   -0.5086 H       1  LIG1        0.0000
     43 H           3.6130   -1.5847   -0.5157 H       1  LIG1        0.0000
     44 H           3.2436    1.9243   -0.0092 H       1  LIG1        0.0000
     45 H           1.1552    3.1001    0.0158 H       1  LIG1        0.0000
     46 H          -2.6400    0.7399   -0.7920 H       1  LIG1        0.0000
     47 H          -2.6278    0.7265    0.8409 H       1  LIG1        0.0000
     48 H          -6.5902    5.5613    2.5489 H       1  LIG1        0.0000
     49 H          -7.3883    7.6892    3.3126 H       1  LIG1        0.0000
     50 H         -10.0363    7.8330    0.1168 H       1  LIG1        0.0000
     51 H          -9.2303    5.7058   -0.6405 H       1  LIG1        0.0000
     52 H          -8.1163    0.3256   -0.6274 H       1  LIG1        0.0000
     53 H          -6.7800    0.5008   -1.5494 H       1  LIG1        0.0000
     54 H          -8.3901    0.4629   -3.1035 H       1  LIG1        0.0000
     55 H          -8.1842    2.0680   -2.8842 H       1  LIG1        0.0000
     56 H         -10.4050    1.9353   -2.8497 H       1  LIG1        0.0000
     57 H         -10.4028    0.4597   -2.1502 H       1  LIG1        0.0000
     58 H         -11.2107    2.1589   -0.6704 H       1  LIG1        0.0000
     59 H          -9.8988    1.3940   -0.0701 H       1  LIG1        0.0000
     60 H          -9.5461    3.8071   -1.5410 H       1  LIG1        0.0000
     61 H          -9.9958    3.8954    0.0263 H       1  LIG1        0.0000
     62 H          -0.8750   -0.5218    0.0008 H       1  LIG1        0.0000
     63 H           1.2177   -1.6893   -0.0240 H       1  LIG1        0.0000
@<TRIPOS>BOND
     1     1     2    1
     2     2     3    2
     3     2     4   am
     4     4     5    1
     5     5     6    1
     6     6     7    1
     7     7     8   ar
     8     8     9   ar
     9     9    10   ar
    10    10    11    1
    11    11    12    2
    12    11    13    1
    13    13    14    1
    14    14    15    1
    15    15    16    2
    16    15    17    1
    17    17    18    1
    18    18    19    2
    19    19    20    1
    20    20    21   ar
    21    21    22   ar
    22    22    23   ar
    23    23    24    1
    24    23    25   ar
    25    25    26   ar
    26    26    20   ar
    27    19    27    1
    28    27    28    1
    29    28    17    2
    30    28    29    1
    31    29    30    1
    32    30    31    1
    33    31    32    1
    34    32    33    1
    35    33    27    1
    36    10    34   ar
    37    34    35   ar
    38    35     7   ar
    39     1    36    1
    40     1    37    1
    41     1    38    1
    42     4    39    1
    43     5    40    1
    44     5    41    1
    45     6    42    1
    46     6    43    1
    47     8    44    1
    48     9    45    1
    49    13    46    1
    50    13    47    1
    51    21    48    1
    52    22    49    1
    53    25    50    1
    54    26    51    1
    55    29    52    1
    56    29    53    1
    57    30    54    1
    58    30    55    1
    59    31    56    1
    60    31    57    1
    61    32    58    1
    62    32    59    1
    63    33    60    1
    64    33    61    1
    65    34    62    1
    66    35    63    1
