@<TRIPOS>MOLECULE
*****
 63 66 0 0 0
SMALL
USER_CHARGES

@<TRIPOS>ATOM
      1 C1          7.9534   -1.7384    1.1492 C.3     1  LIG1        0.0000
      2 C2          6.6255   -0.9989    1.1658 C.2     1  LIG1        0.0000
      3 O3          6.5979    0.1888    0.9964 O.2     1  LIG1        0.0000
      4 N4          5.4601   -1.6883    1.3742 N.am    1  LIG1        0.0000
      5 C5          4.1759   -0.9731    1.3903 C.3     1  LIG1        0.0000
      6 C6          3.7226   -0.7135   -0.0371 C.3     1  LIG1        0.0000
      7 C7          2.3953    0.0257   -0.0205 C.3     1  LIG1        0.0000
      8 C8          2.3824    1.4162   -0.0077 C.3     1  LIG1        0.0000
      9 C9          1.1712    2.1003    0.0072 C.3     1  LIG1        0.0000
     10 C10        -0.0173    1.3776    0.0102 C.3     1  LIG1        0.0000
     11 C11        -1.2821    2.0859    0.0254 C.2     1  LIG1        0.0000
     12 O12        -1.2978    3.2858    0.0354 O.2     1  LIG1        0.0000
     13 C13        -2.5884    1.3088    0.0288 C.3     1  LIG1        0.0000
     14 O14        -3.6796    2.2173    0.0444 O.3     1  LIG1        0.0000
     15 C15        -4.8696    1.6694    0.0488 C.2     1  LIG1        0.0000
     16 O16        -4.9800    0.4746    0.0399 O.2     1  LIG1        0.0000
     17 C17        -6.0536    2.5071    0.0645 C.2     1  LIG1        0.0000
     18 N18        -7.0229    2.5159   -0.8894 N.2     1  LIG1        0.0000
     19 C19        -7.9246    3.3982   -0.5242 C.2     1  LIG1        0.0000
     20 C20        -9.1243    3.7026   -1.2799 C.3     1  LIG1        0.0000
     21 C21        -9.1140    3.5752   -2.6654 C.3     1  LIG1        0.0000
     22 C22       -10.2598    3.8651   -3.3991 C.3     1  LIG1        0.0000
     23 C23       -11.4060    4.2817   -2.7298 C.3     1  LIG1        0.0000
     24 F24       -12.5048    4.5602   -3.4252 F       1  LIG1        0.0000
     25 C25       -11.4256    4.4127   -1.3451 C.3     1  LIG1        0.0000
     26 C26       -10.2751    4.1198   -0.6198 C.3     1  LIG1        0.0000
     27 N27        -7.5726    3.9790    0.6553 N.pl3   1  LIG1        0.0000
     28 C28        -6.3920    3.4099    1.0256 C.2     1  LIG1        0.0000
     29 C29        -5.6160    3.7127    2.2964 C.3     1  LIG1        0.0000
     30 C30        -6.5242    3.9000    3.5064 C.3     1  LIG1        0.0000
     31 C31        -7.1282    5.2925    3.6279 C.3     1  LIG1        0.0000
     32 C32        -7.4210    5.9216    2.2712 C.3     1  LIG1        0.0000
     33 C33        -8.2968    5.0222    1.4082 C.3     1  LIG1        0.0000
     34 C34        -0.0137   -0.0137   -0.0015 C.3     1  LIG1        0.0000
     35 C35         1.2016   -0.6895   -0.0163 C.3     1  LIG1        0.0000
     36 H           7.7940   -2.7132    1.3052 H       1  LIG1        0.0000
     37 H           8.3949   -1.6107    0.2611 H       1  LIG1        0.0000
     38 H           8.5448   -1.3777    1.8704 H       1  LIG1        0.0000
     39 H           5.4830   -2.6780    1.5154 H       1  LIG1        0.0000
     40 H           4.2854   -0.1019    1.8689 H       1  LIG1        0.0000
     41 H           3.4909   -1.5286    1.8617 H       1  LIG1        0.0000
     42 H           4.4076   -0.1580   -0.5086 H       1  LIG1        0.0000
     43 H           3.6130   -1.5847   -0.5157 H       1  LIG1        0.0000
     44 H           3.2436    1.9243   -0.0092 H       1  LIG1        0.0000
     45 H           1.1552    3.1001    0.0158 H       1  LIG1        0.0000
     46 H          -2.6400    0.7399   -0.7920 H       1  LIG1        0.0000
     47 H          -2.6278    0.7265    0.8409 H       1  LIG1        0.0000
     48 H          -8.2829    3.2752   -3.1337 H       1  LIG1        0.0000
     49 H         -10.2596    3.7751   -4.3951 H       1  LIG1        0.0000
     50 H         -12.2564    4.7137   -0.8769 H       1  LIG1        0.0000
     51 H         -10.2756    4.2093    0.3762 H       1  LIG1        0.0000
     52 H          -5.0895    4.5516    2.1581 H       1  LIG1        0.0000
     53 H          -4.9914    2.9535    2.4790 H       1  LIG1        0.0000
     54 H          -5.9886    3.7180    4.3311 H       1  LIG1        0.0000
     55 H          -7.2719    3.2390    3.4420 H       1  LIG1        0.0000
     56 H          -7.9831    5.2275    4.1425 H       1  LIG1        0.0000
     57 H          -6.4857    5.8788    4.1214 H       1  LIG1        0.0000
     58 H          -7.8917    6.7924    2.4129 H       1  LIG1        0.0000
     59 H          -6.5561    6.0837    1.7960 H       1  LIG1        0.0000
     60 H          -8.9594    4.5699    2.0051 H       1  LIG1        0.0000
     61 H          -8.7805    5.5996    0.7504 H       1  LIG1        0.0000
     62 H          -0.8750   -0.5218    0.0008 H       1  LIG1        0.0000
     63 H           1.2177   -1.6893   -0.0240 H       1  LIG1        0.0000
@<TRIPOS>BOND
     1     1     2    1
     2     2     3    2
     3     2     4   am
     4     4     5    1
     5     5     6    1
     6     6     7    1
     7     7     8   ar
     8     8     9   ar
     9     9    10   ar
    10    10    11    1
    11    11    12    2
    12    11    13    1
    13    13    14    1
    14    14    15    1
    15    15    16    2
    16    15    17    1
    17    17    18    1
    18    18    19    2
    19    19    20    1
    20    20    21   ar
    21    21    22   ar
    22    22    23   ar
    23    23    24    1
    24    23    25   ar
    25    25    26   ar
    26    26    20   ar
    27    19    27    1
    28    27    28    1
    29    28    17    2
    30    28    29    1
    31    29    30    1
    32    30    31    1
    33    31    32    1
    34    32    33    1
    35    33    27    1
    36    10    34   ar
    37    34    35   ar
    38    35     7   ar
    39     1    36    1
    40     1    37    1
    41     1    38    1
    42     4    39    1
    43     5    40    1
    44     5    41    1
    45     6    42    1
    46     6    43    1
    47     8    44    1
    48     9    45    1
    49    13    46    1
    50    13    47    1
    51    21    48    1
    52    22    49    1
    53    25    50    1
    54    26    51    1
    55    29    52    1
    56    29    53    1
    57    30    54    1
    58    30    55    1
    59    31    56    1
    60    31    57    1
    61    32    58    1
    62    32    59    1
    63    33    60    1
    64    33    61    1
    65    34    62    1
    66    35    63    1
