@<TRIPOS>MOLECULE

  30   30
SMALL
USER_CHARGES
@<TRIPOS>ATOM
   1 C1           0.4150     0.4150    -1.3402 C.3          1    LIG   0.0000
   2 C2           1.2925     1.2925    -0.4626 C.3          1    LIG   0.0000
   3 C3           1.0000     1.0000     1.0000 C.3          1    LIG   0.0000
   4 O4           1.8198     1.8198     1.8198 O.3          1    LIG   0.0000
   5 C5           1.6579     1.6579     3.1509 C.ar         1    LIG   0.0000
   6 C6           2.4362     0.7167     3.8176 C.ar         1    LIG   0.0000
   7 C7           3.4594    -0.1259     3.0734 C.3          1    LIG   0.0000
   8 C8           2.2932     0.5271     5.1883 C.ar         1    LIG   0.0000
   9 C9           1.3616     1.2894     5.8856 C.ar         1    LIG   0.0000
  10 C10          1.1938     1.0928     7.3836 C.3          1    LIG   0.0000
  11 C11          0.5767     2.2335     5.2315 C.ar         1    LIG   0.0000
  12 C12          0.7297     2.4133     3.8604 C.ar         1    LIG   0.0000
  13 C13         -0.0845     3.3958     3.1712 C.2          1    LIG   0.0000
  14 O14          0.0476     3.5639     1.9396 O.co2        1    LIG   0.0000
  15 O15         -0.8917     4.0528     3.7883 O.co2        1    LIG  -1.0000
  16 H            0.6074     0.6074    -2.3024 H            1    LIG   0.0000
  17 H            0.6074    -0.5473    -1.1477 H            1    LIG   0.0000
  18 H           -0.5473     0.6074    -1.1477 H            1    LIG   0.0000
  19 H            2.2548     1.1001    -0.6551 H            1    LIG   0.0000
  20 H            1.1001     2.2548    -0.6551 H            1    LIG   0.0000
  21 H            0.0377     1.1925     1.1925 H            1    LIG   0.0000
  22 H            1.1925     0.0377     1.1925 H            1    LIG   0.0000
  23 H            3.9167    -0.7400     3.7166 H            1    LIG   0.0000
  24 H            2.9982    -0.6648     2.3685 H            1    LIG   0.0000
  25 H            4.1365     0.4729     2.6455 H            1    LIG   0.0000
  26 H            2.8534    -0.1491     5.6666 H            1    LIG   0.0000
  27 H            1.8250     0.3846     7.6996 H            1    LIG   0.0000
  28 H            1.3920     1.9513     7.8567 H            1    LIG   0.0000
  29 H            0.2539     0.8134     7.5799 H            1    LIG   0.0000
  30 H           -0.0902     2.7770     5.7413 H            1    LIG   0.0000
@<TRIPOS>BOND
   1        1        2 1
   2        2        3 1
   3        3        4 1
   4        4        5 1
   5        5        6 ar
   6        6        7 1
   7        6        8 ar
   8        8        9 ar
   9        9       10 1
  10        9       11 ar
  11       11       12 ar
  12       12        5 ar
  13       12       13 1
  14       13       14 ar
  15       13       15 ar
  16        1       16 1
  17        1       17 1
  18        1       18 1
  19        2       19 1
  20        2       20 1
  21        3       21 1
  22        3       22 1
  23        7       23 1
  24        7       24 1
  25        7       25 1
  26        8       26 1
  27       10       27 1
  28       10       28 1
  29       10       29 1
  30       11       30 1

@<TRIPOS>MOLECULE

  30   30
SMALL
USER_CHARGES
@<TRIPOS>ATOM
   1 C1           0.4150     0.4150    -1.3402 C.3          1    LIG   0.0000
   2 C2           1.2925     1.2925    -0.4626 C.3          1    LIG   0.0000
   3 C3           1.0000     1.0000     1.0000 C.3          1    LIG   0.0000
   4 O4           1.8198     1.8198     1.8198 O.3          1    LIG   0.0000
   5 C5           1.6579     1.6579     3.1509 C.ar         1    LIG   0.0000
   6 C6           0.7172     2.4367     3.8178 C.ar         1    LIG   0.0000
   7 C7          -0.1249     3.4604     3.0736 C.3          1    LIG   0.0000
   8 C8           0.5267     2.2928     5.1882 C.ar         1    LIG   0.0000
   9 C9           1.2886     1.3608     5.8854 C.ar         1    LIG   0.0000
  10 C10          1.0919     1.1928     7.3833 C.3          1    LIG   0.0000
  11 C11          2.2327     0.5759     5.2313 C.ar         1    LIG   0.0000
  12 C12          2.4133     0.7297     3.8604 C.ar         1    LIG   0.0000
  13 C13          3.3953    -0.0850     3.1710 C.2          1    LIG   0.0000
  14 O14          3.5629     0.0467     1.9393 O.co2        1    LIG   0.0000
  15 O15          4.0524    -0.8922     3.7881 O.co2        1    LIG  -1.0000
  16 H            0.6074     0.6074    -2.3024 H            1    LIG   0.0000
  17 H            0.6074    -0.5473    -1.1477 H            1    LIG   0.0000
  18 H           -0.5473     0.6074    -1.1477 H            1    LIG   0.0000
  19 H            2.2548     1.1001    -0.6551 H            1    LIG   0.0000
  20 H            1.1001     2.2548    -0.6551 H            1    LIG   0.0000
  21 H            0.0377     1.1925     1.1925 H            1    LIG   0.0000
  22 H            1.1925     0.0377     1.1925 H            1    LIG   0.0000
  23 H           -0.7387     3.9180     3.7169 H            1    LIG   0.0000
  24 H            0.4742     4.1372     2.6457 H            1    LIG   0.0000
  25 H           -0.6641     2.9995     2.3688 H            1    LIG   0.0000
  26 H           -0.1499     2.8526     5.6665 H            1    LIG   0.0000
  27 H            0.3837     1.8242     7.6994 H            1    LIG   0.0000
  28 H            0.8122     0.2530     7.5795 H            1    LIG   0.0000
  29 H            1.9503     1.3908     7.8566 H            1    LIG   0.0000
  30 H            2.7755    -0.0917     5.7409 H            1    LIG   0.0000
@<TRIPOS>BOND
   1        1        2 1
   2        2        3 1
   3        3        4 1
   4        4        5 1
   5        5        6 ar
   6        6        7 1
   7        6        8 ar
   8        8        9 ar
   9        9       10 1
  10        9       11 ar
  11       11       12 ar
  12       12        5 ar
  13       12       13 1
  14       13       14 ar
  15       13       15 ar
  16        1       16 1
  17        1       17 1
  18        1       18 1
  19        2       19 1
  20        2       20 1
  21        3       21 1
  22        3       22 1
  23        7       23 1
  24        7       24 1
  25        7       25 1
  26        8       26 1
  27       10       27 1
  28       10       28 1
  29       10       29 1
  30       11       30 1

@<TRIPOS>MOLECULE

  30   30
SMALL
USER_CHARGES
@<TRIPOS>ATOM
   1 C1           0.4150     0.4150    -1.3402 C.3          1    LIG   0.0000
   2 C2           1.2925     1.2925    -0.4626 C.3          1    LIG   0.0000
   3 C3           1.0000     1.0000     1.0000 C.3          1    LIG   0.0000
   4 O4           1.8198     1.8198     1.8198 O.3          1    LIG   0.0000
   5 C5           2.3284     1.2202     2.9180 C.ar         1    LIG   0.0000
   6 C6           3.5606     0.5800     2.8300 C.ar         1    LIG   0.0000
   7 C7           4.3370     0.5465     1.5235 C.3          1    LIG   0.0000
   8 C8           4.1110    -0.0461     3.9436 C.ar         1    LIG   0.0000
   9 C9           3.4144    -0.0254     5.1476 C.ar         1    LIG   0.0000
  10 C10          4.0032    -0.7058     6.3728 C.3          1    LIG   0.0000
  11 C11          2.1815     0.6107     5.2496 C.ar         1    LIG   0.0000
  12 C12          1.6422     1.2330     4.1282 C.ar         1    LIG   0.0000
  13 C13          0.3574     1.8987     4.2264 C.2          1    LIG   0.0000
  14 O14         -0.1334     2.4609     3.2236 O.co2        1    LIG   0.0000
  15 O15         -0.2393     1.9098     5.2789 O.co2        1    LIG  -1.0000
  16 H            0.6074     0.6074    -2.3024 H            1    LIG   0.0000
  17 H            0.6074    -0.5473    -1.1477 H            1    LIG   0.0000
  18 H           -0.5473     0.6074    -1.1477 H            1    LIG   0.0000
  19 H            2.2548     1.1001    -0.6551 H            1    LIG   0.0000
  20 H            1.1001     2.2548    -0.6551 H            1    LIG   0.0000
  21 H            0.0377     1.1925     1.1925 H            1    LIG   0.0000
  22 H            1.1925     0.0377     1.1925 H            1    LIG   0.0000
  23 H            5.1919     0.0450     1.6565 H            1    LIG   0.0000
  24 H            3.7891     0.0911     0.8217 H            1    LIG   0.0000
  25 H            4.5408     1.4813     1.2327 H            1    LIG   0.0000
  26 H            4.9969    -0.5055     3.8794 H            1    LIG   0.0000
  27 H            4.8855    -1.1127     6.1364 H            1    LIG   0.0000
  28 H            4.1313    -0.0310     7.0995 H            1    LIG   0.0000
  29 H            3.3800    -1.4213     6.6885 H            1    LIG   0.0000
  30 H            1.6883     0.6205     6.1194 H            1    LIG   0.0000
@<TRIPOS>BOND
   1        1        2 1
   2        2        3 1
   3        3        4 1
   4        4        5 1
   5        5        6 ar
   6        6        7 1
   7        6        8 ar
   8        8        9 ar
   9        9       10 1
  10        9       11 ar
  11       11       12 ar
  12       12        5 ar
  13       12       13 1
  14       13       14 ar
  15       13       15 ar
  16        1       16 1
  17        1       17 1
  18        1       18 1
  19        2       19 1
  20        2       20 1
  21        3       21 1
  22        3       22 1
  23        7       23 1
  24        7       24 1
  25        7       25 1
  26        8       26 1
  27       10       27 1
  28       10       28 1
  29       10       29 1
  30       11       30 1

@<TRIPOS>MOLECULE

  30   30
SMALL
USER_CHARGES
@<TRIPOS>ATOM
   1 C1           0.4150     0.4150    -1.3402 C.3          1    LIG   0.0000
   2 C2           1.2925     1.2925    -0.4626 C.3          1    LIG   0.0000
   3 C3           1.0000     1.0000     1.0000 C.3          1    LIG   0.0000
   4 O4           1.8198     1.8198     1.8198 O.3          1    LIG   0.0000
   5 C5           2.3284     1.2202     2.9180 C.ar         1    LIG   0.0000
   6 C6           1.6056     1.2597     4.1064 C.ar         1    LIG   0.0000
   7 C7           0.2606     1.9637     4.1849 C.3          1    LIG   0.0000
   8 C8           2.1025     0.6509     5.2542 C.ar         1    LIG   0.0000
   9 C9           3.3319     0.0021     5.2008 C.ar         1    LIG   0.0000
  10 C10          3.8878    -0.6671     6.4474 C.3          1    LIG   0.0000
  11 C11          4.0650    -0.0447     4.0195 C.ar         1    LIG   0.0000
  12 C12          3.5567     0.5681     2.8786 C.ar         1    LIG   0.0000
  13 C13          4.3148     0.5236     1.6430 C.2          1    LIG   0.0000
  14 O14          3.8645     1.0710     0.6134 O.co2        1    LIG   0.0000
  15 O15          5.3831    -0.0436     1.6087 O.co2        1    LIG  -1.0000
  16 H            0.6074     0.6074    -2.3024 H            1    LIG   0.0000
  17 H            0.6074    -0.5473    -1.1477 H            1    LIG   0.0000
  18 H           -0.5473     0.6074    -1.1477 H            1    LIG   0.0000
  19 H            2.2548     1.1001    -0.6551 H            1    LIG   0.0000
  20 H            1.1001     2.2548    -0.6551 H            1    LIG   0.0000
  21 H            0.0377     1.1925     1.1925 H            1    LIG   0.0000
  22 H            1.1925     0.0377     1.1925 H            1    LIG   0.0000
  23 H           -0.1027     1.8856     5.1133 H            1    LIG   0.0000
  24 H            0.3757     2.9293     3.9521 H            1    LIG   0.0000
  25 H           -0.3759     1.5391     3.5411 H            1    LIG   0.0000
  26 H            1.5821     0.6794     6.1077 H            1    LIG   0.0000
  27 H            3.2469    -0.5449     7.2053 H            1    LIG   0.0000
  28 H            4.0153    -1.6435     6.2728 H            1    LIG   0.0000
  29 H            4.7668    -0.2532     6.6841 H            1    LIG   0.0000
  30 H            4.9477    -0.5137     3.9907 H            1    LIG   0.0000
@<TRIPOS>BOND
   1        1        2 1
   2        2        3 1
   3        3        4 1
   4        4        5 1
   5        5        6 ar
   6        6        7 1
   7        6        8 ar
   8        8        9 ar
   9        9       10 1
  10        9       11 ar
  11       11       12 ar
  12       12        5 ar
  13       12       13 1
  14       13       14 ar
  15       13       15 ar
  16        1       16 1
  17        1       17 1
  18        1       18 1
  19        2       19 1
  20        2       20 1
  21        3       21 1
  22        3       22 1
  23        7       23 1
  24        7       24 1
  25        7       25 1
  26        8       26 1
  27       10       27 1
  28       10       28 1
  29       10       29 1
  30       11       30 1

@<TRIPOS>MOLECULE

  30   30
SMALL
USER_CHARGES
@<TRIPOS>ATOM
   1 C1           0.4150     0.4150    -1.3402 C.3          1    LIG   0.0000
   2 C2           1.2925     1.2925    -0.4626 C.3          1    LIG   0.0000
   3 C3           1.0000     1.0000     1.0000 C.3          1    LIG   0.0000
   4 O4           1.8198     1.8198     1.8198 O.3          1    LIG   0.0000
   5 C5           1.2202     2.3284     2.9180 C.ar         1    LIG   0.0000
   6 C6           1.2591     1.6053     4.1062 C.ar         1    LIG   0.0000
   7 C7           1.9624     0.2600     4.1846 C.3          1    LIG   0.0000
   8 C8           0.6514     2.1028     5.2544 C.ar         1    LIG   0.0000
   9 C9           0.0031     3.3324     5.2011 C.ar         1    LIG   0.0000
  10 C10         -0.6660     3.8884     6.4477 C.3          1    LIG   0.0000
  11 C11         -0.0437     4.0656     4.0198 C.ar         1    LIG   0.0000
  12 C12          0.5681     3.5567     2.8786 C.ar         1    LIG   0.0000
  13 C13          0.5242     4.3151     1.6432 C.2          1    LIG   0.0000
  14 O14          1.0722     3.8651     0.6138 O.co2        1    LIG   0.0000
  15 O15         -0.0430     5.3834     1.6089 O.co2        1    LIG  -1.0000
  16 H            0.6074     0.6074    -2.3024 H            1    LIG   0.0000
  17 H            0.6074    -0.5473    -1.1477 H            1    LIG   0.0000
  18 H           -0.5473     0.6074    -1.1477 H            1    LIG   0.0000
  19 H            2.2548     1.1001    -0.6551 H            1    LIG   0.0000
  20 H            1.1001     2.2548    -0.6551 H            1    LIG   0.0000
  21 H            0.0377     1.1925     1.1925 H            1    LIG   0.0000
  22 H            1.1925     0.0377     1.1925 H            1    LIG   0.0000
  23 H            1.8841    -0.1036     5.1128 H            1    LIG   0.0000
  24 H            1.5377    -0.3762     3.5405 H            1    LIG   0.0000
  25 H            2.9282     0.3747     3.9520 H            1    LIG   0.0000
  26 H            0.6803     1.5826     6.1080 H            1    LIG   0.0000
  27 H           -0.5439     3.2475     7.2056 H            1    LIG   0.0000
  28 H           -0.2518     4.7673     6.6844 H            1    LIG   0.0000
  29 H           -1.6423     4.0162     6.2732 H            1    LIG   0.0000
  30 H           -0.5119     4.9487     3.9913 H            1    LIG   0.0000
@<TRIPOS>BOND
   1        1        2 1
   2        2        3 1
   3        3        4 1
   4        4        5 1
   5        5        6 ar
   6        6        7 1
   7        6        8 ar
   8        8        9 ar
   9        9       10 1
  10        9       11 ar
  11       11       12 ar
  12       12        5 ar
  13       12       13 1
  14       13       14 ar
  15       13       15 ar
  16        1       16 1
  17        1       17 1
  18        1       18 1
  19        2       19 1
  20        2       20 1
  21        3       21 1
  22        3       22 1
  23        7       23 1
  24        7       24 1
  25        7       25 1
  26        8       26 1
  27       10       27 1
  28       10       28 1
  29       10       29 1
  30       11       30 1

@<TRIPOS>MOLECULE

  30   30
SMALL
USER_CHARGES
@<TRIPOS>ATOM
   1 C1           0.4150     0.4150    -1.3402 C.3          1    LIG   0.0000
   2 C2           1.2925     1.2925    -0.4626 C.3          1    LIG   0.0000
   3 C3           1.0000     1.0000     1.0000 C.3          1    LIG   0.0000
   4 O4           1.8198     1.8198     1.8198 O.3          1    LIG   0.0000
   5 C5           1.2202     2.3284     2.9180 C.ar         1    LIG   0.0000
   6 C6           0.5806     3.5610     2.8301 C.ar         1    LIG   0.0000
   7 C7           0.5477     4.3377     1.5238 C.3          1    LIG   0.0000
   8 C8          -0.0465     4.1108     3.9434 C.ar         1    LIG   0.0000
   9 C9          -0.0264     3.4139     5.1473 C.ar         1    LIG   0.0000
  10 C10         -0.7070     4.0025     6.3725 C.3          1    LIG   0.0000
  11 C11          0.6096     2.1810     5.2493 C.ar         1    LIG   0.0000
  12 C12          1.2330     1.6422     4.1282 C.ar         1    LIG   0.0000
  13 C13          1.8981     0.3571     4.2262 C.2          1    LIG   0.0000
  14 O14          2.4597    -0.1340     3.2233 O.co2        1    LIG   0.0000
  15 O15          1.9092    -0.2397     5.2787 O.co2        1    LIG  -1.0000
  16 H            0.6074     0.6074    -2.3024 H            1    LIG   0.0000
  17 H            0.6074    -0.5473    -1.1477 H            1    LIG   0.0000
  18 H           -0.5473     0.6074    -1.1477 H            1    LIG   0.0000
  19 H            2.2548     1.1001    -0.6551 H            1    LIG   0.0000
  20 H            1.1001     2.2548    -0.6551 H            1    LIG   0.0000
  21 H            0.0377     1.1925     1.1925 H            1    LIG   0.0000
  22 H            1.1925     0.0377     1.1925 H            1    LIG   0.0000
  23 H            0.0465     5.1927     1.6569 H            1    LIG   0.0000
  24 H            1.4827     4.5411     1.2333 H            1    LIG   0.0000
  25 H            0.0922     3.7902     0.8218 H            1    LIG   0.0000
  26 H           -0.5064     4.9964     3.8792 H            1    LIG   0.0000
  27 H           -1.1138     4.8849     6.1361 H            1    LIG   0.0000
  28 H           -1.4226     3.3793     6.6879 H            1    LIG   0.0000
  29 H           -0.0323     4.1306     7.0994 H            1    LIG   0.0000
  30 H            0.6186     1.6873     6.1188 H            1    LIG   0.0000
@<TRIPOS>BOND
   1        1        2 1
   2        2        3 1
   3        3        4 1
   4        4        5 1
   5        5        6 ar
   6        6        7 1
   7        6        8 ar
   8        8        9 ar
   9        9       10 1
  10        9       11 ar
  11       11       12 ar
  12       12        5 ar
  13       12       13 1
  14       13       14 ar
  15       13       15 ar
  16        1       16 1
  17        1       17 1
  18        1       18 1
  19        2       19 1
  20        2       20 1
  21        3       21 1
  22        3       22 1
  23        7       23 1
  24        7       24 1
  25        7       25 1
  26        8       26 1
  27       10       27 1
  28       10       28 1
  29       10       29 1
  30       11       30 1

@<TRIPOS>MOLECULE

  30   30
SMALL
USER_CHARGES
@<TRIPOS>ATOM
   1 C1           1.0523     0.0389    -1.2879 C.3          1    LIG   0.0000
   2 C2           1.2925     1.2925    -0.4626 C.3          1    LIG   0.0000
   3 C3           1.0000     1.0000     1.0000 C.3          1    LIG   0.0000
   4 O4           1.8198     1.8198     1.8198 O.3          1    LIG   0.0000
   5 C5           1.3930     3.0909     1.9827 C.ar         1    LIG   0.0000
   6 C6           1.8177     4.0672     1.0868 C.ar         1    LIG   0.0000
   7 C7           2.7490     3.7251    -0.0649 C.3          1    LIG   0.0000
   8 C8           1.3950     5.3850     1.2277 C.ar         1    LIG   0.0000
   9 C9           0.5426     5.7163     2.2759 C.ar         1    LIG   0.0000
  10 C10          0.0729     7.1523     2.4428 C.3          1    LIG   0.0000
  11 C11          0.1106     4.7503     3.1789 C.ar         1    LIG   0.0000
  12 C12          0.5408     3.4360     3.0268 C.ar         1    LIG   0.0000
  13 C13          0.0947     2.4228     3.9638 C.2          1    LIG   0.0000
  14 O14          0.4760     1.2396     3.8334 O.co2        1    LIG   0.0000
  15 O15         -0.6466     2.7230     4.8719 O.co2        1    LIG  -1.0000
  16 H            1.2447     0.2314    -2.2502 H            1    LIG   0.0000
  17 H            1.6548    -0.6919    -0.9672 H            1    LIG   0.0000
  18 H            0.0992    -0.2475    -1.1894 H            1    LIG   0.0000
  19 H            2.2456     1.5789    -0.5611 H            1    LIG   0.0000
  20 H            0.6900     2.0233    -0.7834 H            1    LIG   0.0000
  21 H            0.0377     1.1925     1.1925 H            1    LIG   0.0000
  22 H            1.1925     0.0377     1.1925 H            1    LIG   0.0000
  23 H            2.9405     4.5509    -0.5952 H            1    LIG   0.0000
  24 H            3.6048     3.3554     0.2970 H            1    LIG   0.0000
  25 H            2.3143     3.0439    -0.6540 H            1    LIG   0.0000
  26 H            1.7003     6.0859     0.5830 H            1    LIG   0.0000
  27 H            0.4687     7.7186     1.7199 H            1    LIG   0.0000
  28 H           -0.9248     7.1857     2.3837 H            1    LIG   0.0000
  29 H            0.3657     7.4974     3.3345 H            1    LIG   0.0000
  30 H           -0.5024     4.9979     3.9292 H            1    LIG   0.0000
@<TRIPOS>BOND
   1        1        2 1
   2        2        3 1
   3        3        4 1
   4        4        5 1
   5        5        6 ar
   6        6        7 1
   7        6        8 ar
   8        8        9 ar
   9        9       10 1
  10        9       11 ar
  11       11       12 ar
  12       12        5 ar
  13       12       13 1
  14       13       14 ar
  15       13       15 ar
  16        1       16 1
  17        1       17 1
  18        1       18 1
  19        2       19 1
  20        2       20 1
  21        3       21 1
  22        3       22 1
  23        7       23 1
  24        7       24 1
  25        7       25 1
  26        8       26 1
  27       10       27 1
  28       10       28 1
  29       10       29 1
  30       11       30 1

@<TRIPOS>MOLECULE

  30   30
SMALL
USER_CHARGES
@<TRIPOS>ATOM
   1 C1           0.0389     1.0523    -1.2879 C.3          1    LIG   0.0000
   2 C2           1.2925     1.2925    -0.4626 C.3          1    LIG   0.0000
   3 C3           1.0000     1.0000     1.0000 C.3          1    LIG   0.0000
   4 O4           1.8198     1.8198     1.8198 O.3          1    LIG   0.0000
   5 C5           1.1753     2.7954     2.4960 C.ar         1    LIG   0.0000
   6 C6           1.0251     4.0446     1.9020 C.ar         1    LIG   0.0000
   7 C7           1.5728     4.3245     0.5118 C.3          1    LIG   0.0000
   8 C8           0.3656     5.0694     2.5726 C.ar         1    LIG   0.0000
   9 C9          -0.1421     4.8312     3.8457 C.ar         1    LIG   0.0000
  10 C10         -0.8647     5.9417     4.5909 C.3          1    LIG   0.0000
  11 C11          0.0012     3.5872     4.4514 C.ar         1    LIG   0.0000
  12 C12          0.6629     2.5707     3.7698 C.ar         1    LIG   0.0000
  13 C13          0.8163     1.2708     4.3943 C.2          1    LIG   0.0000
  14 O14          1.4088     0.3522     3.7880 O.co2        1    LIG   0.0000
  15 O15          0.3707     1.0754     5.5021 O.co2        1    LIG  -1.0000
  16 H            0.2314     1.2447    -2.2502 H            1    LIG   0.0000
  17 H           -0.2475     0.0992    -1.1894 H            1    LIG   0.0000
  18 H           -0.6919     1.6548    -0.9672 H            1    LIG   0.0000
  19 H            2.0233     0.6900    -0.7834 H            1    LIG   0.0000
  20 H            1.5789     2.2456    -0.5611 H            1    LIG   0.0000
  21 H            0.0377     1.1925     1.1925 H            1    LIG   0.0000
  22 H            1.1925     0.0377     1.1925 H            1    LIG   0.0000
  23 H            1.3690     5.2699     0.2574 H            1    LIG   0.0000
  24 H            2.5630     4.1848     0.5093 H            1    LIG   0.0000
  25 H            1.1468     3.7031    -0.1457 H            1    LIG   0.0000
  26 H            0.2577     5.9668     2.1447 H            1    LIG   0.0000
  27 H           -0.8833     6.7658     4.0248 H            1    LIG   0.0000
  28 H           -1.8011     5.6540     4.7917 H            1    LIG   0.0000
  29 H           -0.3849     6.1360     5.4466 H            1    LIG   0.0000
  30 H           -0.3673     3.4252     5.3668 H            1    LIG   0.0000
@<TRIPOS>BOND
   1        1        2 1
   2        2        3 1
   3        3        4 1
   4        4        5 1
   5        5        6 ar
   6        6        7 1
   7        6        8 ar
   8        8        9 ar
   9        9       10 1
  10        9       11 ar
  11       11       12 ar
  12       12        5 ar
  13       12       13 1
  14       13       14 ar
  15       13       15 ar
  16        1       16 1
  17        1       17 1
  18        1       18 1
  19        2       19 1
  20        2       20 1
  21        3       21 1
  22        3       22 1
  23        7       23 1
  24        7       24 1
  25        7       25 1
  26        8       26 1
  27       10       27 1
  28       10       28 1
  29       10       29 1
  30       11       30 1

@<TRIPOS>MOLECULE

  30   30
SMALL
USER_CHARGES
@<TRIPOS>ATOM
   1 C1           0.0389     1.0523    -1.2879 C.3          1    LIG   0.0000
   2 C2           1.2925     1.2925    -0.4626 C.3          1    LIG   0.0000
   3 C3           1.0000     1.0000     1.0000 C.3          1    LIG   0.0000
   4 O4           1.8198     1.8198     1.8198 O.3          1    LIG   0.0000
   5 C5           1.8151     3.1358     1.5157 C.ar         1    LIG   0.0000
   6 C6           0.8797     3.9673     2.1236 C.ar         1    LIG   0.0000
   7 C7          -0.1302     3.4186     3.1186 C.3          1    LIG   0.0000
   8 C8           0.8499     5.3270     1.8316 C.ar         1    LIG   0.0000
   9 C9           1.7666     5.8466     0.9233 C.ar         1    LIG   0.0000
  10 C10          1.7458     7.3305     0.5939 C.3          1    LIG   0.0000
  11 C11          2.7070     5.0267     0.3081 C.ar         1    LIG   0.0000
  12 C12          2.7260     3.6685     0.6090 C.ar         1    LIG   0.0000
  13 C13          3.7035     2.8069    -0.0279 C.2          1    LIG   0.0000
  14 O14          3.7275     1.5857     0.2378 O.co2        1    LIG   0.0000
  15 O15          4.4957     3.2702    -0.8165 O.co2        1    LIG  -1.0000
  16 H            0.2314     1.2447    -2.2502 H            1    LIG   0.0000
  17 H           -0.2475     0.0992    -1.1894 H            1    LIG   0.0000
  18 H           -0.6919     1.6548    -0.9672 H            1    LIG   0.0000
  19 H            2.0233     0.6900    -0.7834 H            1    LIG   0.0000
  20 H            1.5789     2.2456    -0.5611 H            1    LIG   0.0000
  21 H            0.0377     1.1925     1.1925 H            1    LIG   0.0000
  22 H            1.1925     0.0377     1.1925 H            1    LIG   0.0000
  23 H           -0.7139     4.1619     3.4453 H            1    LIG   0.0000
  24 H           -0.6940     2.7236     2.6724 H            1    LIG   0.0000
  25 H            0.3530     3.0094     3.8926 H            1    LIG   0.0000
  26 H            0.1776     5.9240     2.2693 H            1    LIG   0.0000
  27 H            1.0179     7.7772     1.1141 H            1    LIG   0.0000
  28 H            2.6265     7.7380     0.8355 H            1    LIG   0.0000
  29 H            1.5793     7.4524    -0.3845 H            1    LIG   0.0000
  30 H            3.3622     5.4093    -0.3433 H            1    LIG   0.0000
@<TRIPOS>BOND
   1        1        2 1
   2        2        3 1
   3        3        4 1
   4        4        5 1
   5        5        6 ar
   6        6        7 1
   7        6        8 ar
   8        8        9 ar
   9        9       10 1
  10        9       11 ar
  11       11       12 ar
  12       12        5 ar
  13       12       13 1
  14       13       14 ar
  15       13       15 ar
  16        1       16 1
  17        1       17 1
  18        1       18 1
  19        2       19 1
  20        2       20 1
  21        3       21 1
  22        3       22 1
  23        7       23 1
  24        7       24 1
  25        7       25 1
  26        8       26 1
  27       10       27 1
  28       10       28 1
  29       10       29 1
  30       11       30 1

@<TRIPOS>MOLECULE

  30   30
SMALL
USER_CHARGES
@<TRIPOS>ATOM
   1 C1           0.0389     1.0523    -1.2879 C.3          1    LIG   0.0000
   2 C2           1.2925     1.2925    -0.4626 C.3          1    LIG   0.0000
   3 C3           1.0000     1.0000     1.0000 C.3          1    LIG   0.0000
   4 O4           1.8198     1.8198     1.8198 O.3          1    LIG   0.0000
   5 C5           1.8151     3.1358     1.5157 C.ar         1    LIG   0.0000
   6 C6           2.7458     3.6227     0.6032 C.ar         1    LIG   0.0000
   7 C7           3.7610     2.7000    -0.0517 C.3          1    LIG   0.0000
   8 C8           2.7658     4.9728     0.2690 C.ar         1    LIG   0.0000
   9 C9           1.8442     5.8320     0.8587 C.ar         1    LIG   0.0000
  10 C10          1.8544     7.3100     0.5036 C.3          1    LIG   0.0000
  11 C11          0.9085     5.3587     1.7727 C.ar         1    LIG   0.0000
  12 C12          0.8992     4.0060     2.0982 C.ar         1    LIG   0.0000
  13 C13         -0.0734     3.5046     3.0501 C.2          1    LIG   0.0000
  14 O14         -0.0887     2.2905     3.3472 O.co2        1    LIG   0.0000
  15 O15         -0.8700     4.2615     3.5567 O.co2        1    LIG  -1.0000
  16 H            0.2314     1.2447    -2.2502 H            1    LIG   0.0000
  17 H           -0.2475     0.0992    -1.1894 H            1    LIG   0.0000
  18 H           -0.6919     1.6548    -0.9672 H            1    LIG   0.0000
  19 H            2.0233     0.6900    -0.7834 H            1    LIG   0.0000
  20 H            1.5789     2.2456    -0.5611 H            1    LIG   0.0000
  21 H            0.0377     1.1925     1.1925 H            1    LIG   0.0000
  22 H            1.1925     0.0377     1.1925 H            1    LIG   0.0000
  23 H            4.3401     3.2285    -0.6724 H            1    LIG   0.0000
  24 H            4.3288     2.2750     0.6533 H            1    LIG   0.0000
  25 H            3.2818     1.9893    -0.5670 H            1    LIG   0.0000
  26 H            3.4348     5.3217    -0.3873 H            1    LIG   0.0000
  27 H            2.5801     7.4882    -0.1610 H            1    LIG   0.0000
  28 H            0.9713     7.5642     0.1091 H            1    LIG   0.0000
  29 H            2.0185     7.8500     1.3291 H            1    LIG   0.0000
  30 H            0.2497     5.9838     2.1913 H            1    LIG   0.0000
@<TRIPOS>BOND
   1        1        2 1
   2        2        3 1
   3        3        4 1
   4        4        5 1
   5        5        6 ar
   6        6        7 1
   7        6        8 ar
   8        8        9 ar
   9        9       10 1
  10        9       11 ar
  11       11       12 ar
  12       12        5 ar
  13       12       13 1
  14       13       14 ar
  15       13       15 ar
  16        1       16 1
  17        1       17 1
  18        1       18 1
  19        2       19 1
  20        2       20 1
  21        3       21 1
  22        3       22 1
  23        7       23 1
  24        7       24 1
  25        7       25 1
  26        8       26 1
  27       10       27 1
  28       10       28 1
  29       10       29 1
  30       11       30 1

@<TRIPOS>MOLECULE

  30   30
SMALL
USER_CHARGES
@<TRIPOS>ATOM
   1 C1           1.0523     0.0389    -1.2879 C.3          1    LIG   0.0000
   2 C2           1.2925     1.2925    -0.4626 C.3          1    LIG   0.0000
   3 C3           1.0000     1.0000     1.0000 C.3          1    LIG   0.0000
   4 O4           1.8198     1.8198     1.8198 O.3          1    LIG   0.0000
   5 C5           3.1358     1.8151     1.5157 C.ar         1    LIG   0.0000
   6 C6           3.6225     2.7454     0.6027 C.ar         1    LIG   0.0000
   7 C7           2.6997     3.7601    -0.0528 C.3          1    LIG   0.0000
   8 C8           4.9729     2.7662     0.2694 C.ar         1    LIG   0.0000
   9 C9           5.8322     1.8449     0.8595 C.ar         1    LIG   0.0000
  10 C10          7.3102     1.8553     0.5046 C.3          1    LIG   0.0000
  11 C11          5.3589     0.9093     1.7737 C.ar         1    LIG   0.0000
  12 C12          4.0060     0.8992     2.0982 C.ar         1    LIG   0.0000
  13 C13          3.5047    -0.0729     3.0507 C.2          1    LIG   0.0000
  14 O14          2.2907    -0.0878     3.3482 O.co2        1    LIG   0.0000
  15 O15          4.2616    -0.8695     3.5573 O.co2        1    LIG  -1.0000
  16 H            1.2447     0.2314    -2.2502 H            1    LIG   0.0000
  17 H            1.6548    -0.6919    -0.9672 H            1    LIG   0.0000
  18 H            0.0992    -0.2475    -1.1894 H            1    LIG   0.0000
  19 H            2.2456     1.5789    -0.5611 H            1    LIG   0.0000
  20 H            0.6900     2.0233    -0.7834 H            1    LIG   0.0000
  21 H            0.0377     1.1925     1.1925 H            1    LIG   0.0000
  22 H            1.1925     0.0377     1.1925 H            1    LIG   0.0000
  23 H            3.2282     4.3389    -0.6738 H            1    LIG   0.0000
  24 H            1.9891     3.2806    -0.5677 H            1    LIG   0.0000
  25 H            2.2748     4.3282     0.6519 H            1    LIG   0.0000
  26 H            5.3219     3.4355    -0.3865 H            1    LIG   0.0000
  27 H            7.4884     2.5809    -0.1600 H            1    LIG   0.0000
  28 H            7.8501     2.0196     1.3302 H            1    LIG   0.0000
  29 H            7.5646     0.9722     0.1103 H            1    LIG   0.0000
  30 H            5.9842     0.2511     2.1929 H            1    LIG   0.0000
@<TRIPOS>BOND
   1        1        2 1
   2        2        3 1
   3        3        4 1
   4        4        5 1
   5        5        6 ar
   6        6        7 1
   7        6        8 ar
   8        8        9 ar
   9        9       10 1
  10        9       11 ar
  11       11       12 ar
  12       12        5 ar
  13       12       13 1
  14       13       14 ar
  15       13       15 ar
  16        1       16 1
  17        1       17 1
  18        1       18 1
  19        2       19 1
  20        2       20 1
  21        3       21 1
  22        3       22 1
  23        7       23 1
  24        7       24 1
  25        7       25 1
  26        8       26 1
  27       10       27 1
  28       10       28 1
  29       10       29 1
  30       11       30 1

@<TRIPOS>MOLECULE

  30   30
SMALL
USER_CHARGES
@<TRIPOS>ATOM
   1 C1           1.0523     0.0389    -1.2879 C.3          1    LIG   0.0000
   2 C2           1.2925     1.2925    -0.4626 C.3          1    LIG   0.0000
   3 C3           1.0000     1.0000     1.0000 C.3          1    LIG   0.0000
   4 O4           1.8198     1.8198     1.8198 O.3          1    LIG   0.0000
   5 C5           3.1358     1.8151     1.5157 C.ar         1    LIG   0.0000
   6 C6           3.9674     0.8801     2.1241 C.ar         1    LIG   0.0000
   7 C7           3.4189    -0.1293     3.1196 C.3          1    LIG   0.0000
   8 C8           5.3269     0.8496     1.8312 C.ar         1    LIG   0.0000
   9 C9           5.8464     1.7659     0.9225 C.ar         1    LIG   0.0000
  10 C10          7.3302     1.7449     0.5929 C.3          1    LIG   0.0000
  11 C11          5.0264     2.7062     0.3072 C.ar         1    LIG   0.0000
  12 C12          3.6685     2.7260     0.6090 C.ar         1    LIG   0.0000
  13 C13          2.8068     3.7030    -0.0284 C.2          1    LIG   0.0000
  14 O14          1.5855     3.7267     0.2369 O.co2        1    LIG   0.0000
  15 O15          3.2701     4.4952    -0.8170 O.co2        1    LIG  -1.0000
  16 H            1.2447     0.2314    -2.2502 H            1    LIG   0.0000
  17 H            1.6548    -0.6919    -0.9672 H            1    LIG   0.0000
  18 H            0.0992    -0.2475    -1.1894 H            1    LIG   0.0000
  19 H            2.2456     1.5789    -0.5611 H            1    LIG   0.0000
  20 H            0.6900     2.0233    -0.7834 H            1    LIG   0.0000
  21 H            0.0377     1.1925     1.1925 H            1    LIG   0.0000
  22 H            1.1925     0.0377     1.1925 H            1    LIG   0.0000
  23 H            4.1622    -0.7127     3.4467 H            1    LIG   0.0000
  24 H            3.0095     0.3542     3.8934 H            1    LIG   0.0000
  25 H            2.7239    -0.6934     2.6737 H            1    LIG   0.0000
  26 H            5.9238     0.1769     2.2686 H            1    LIG   0.0000
  27 H            7.7770     1.0171     1.1132 H            1    LIG   0.0000
  28 H            7.4520     1.5782    -0.3856 H            1    LIG   0.0000
  29 H            7.7378     2.6256     0.8342 H            1    LIG   0.0000
  30 H            5.4089     3.3608    -0.3449 H            1    LIG   0.0000
@<TRIPOS>BOND
   1        1        2 1
   2        2        3 1
   3        3        4 1
   4        4        5 1
   5        5        6 ar
   6        6        7 1
   7        6        8 ar
   8        8        9 ar
   9        9       10 1
  10        9       11 ar
  11       11       12 ar
  12       12        5 ar
  13       12       13 1
  14       13       14 ar
  15       13       15 ar
  16        1       16 1
  17        1       17 1
  18        1       18 1
  19        2       19 1
  20        2       20 1
  21        3       21 1
  22        3       22 1
  23        7       23 1
  24        7       24 1
  25        7       25 1
  26        8       26 1
  27       10       27 1
  28       10       28 1
  29       10       29 1
  30       11       30 1

