@<TRIPOS>MOLECULE
*****
 30 30 0 0 0
SMALL
USER_CHARGES

@<TRIPOS>ATOM
      1 C1          0.4150    0.4150   -1.3402 C.3     1  LIG1        0.0000
      2 C2          1.2925    1.2925   -0.4626 C.3     1  LIG1        0.0000
      3 C3          1.0000    1.0000    1.0000 C.3     1  LIG1        0.0000
      4 O4          1.8198    1.8198    1.8198 O.2     1  LIG1        0.0000
      5 C5          2.3284    1.2202    2.9180 C.3     1  LIG1        0.0000
      6 C6          3.5606    0.5800    2.8300 C.3     1  LIG1        0.0000
      7 C7          4.3370    0.5465    1.5235 C.3     1  LIG1        0.0000
      8 C8          4.1110   -0.0461    3.9436 C.3     1  LIG1        0.0000
      9 C9          3.4144   -0.0254    5.1476 C.3     1  LIG1        0.0000
     10 C10         4.0032   -0.7058    6.3728 C.3     1  LIG1        0.0000
     11 C11         2.1815    0.6107    5.2496 C.3     1  LIG1        0.0000
     12 C12         1.6422    1.2330    4.1282 C.3     1  LIG1        0.0000
     13 C13         0.3574    1.8987    4.2264 C.3     1  LIG1        0.0000
     14 O14        -0.1334    2.4609    3.2236 O.2     1  LIG1        0.0000
     15 O15        -0.2393    1.9098    5.2789 O.2     1  LIG1       -1.0000
     16 H           0.6074    0.6074   -2.3024 H       1  LIG1        0.0000
     17 H           0.6074   -0.5473   -1.1477 H       1  LIG1        0.0000
     18 H          -0.5473    0.6074   -1.1477 H       1  LIG1        0.0000
     19 H           2.2548    1.1001   -0.6551 H       1  LIG1        0.0000
     20 H           1.1001    2.2548   -0.6551 H       1  LIG1        0.0000
     21 H           0.0377    1.1925    1.1925 H       1  LIG1        0.0000
     22 H           1.1925    0.0377    1.1925 H       1  LIG1        0.0000
     23 H           5.1919    0.0450    1.6565 H       1  LIG1        0.0000
     24 H           3.7891    0.0911    0.8217 H       1  LIG1        0.0000
     25 H           4.5408    1.4813    1.2327 H       1  LIG1        0.0000
     26 H           4.9969   -0.5055    3.8794 H       1  LIG1        0.0000
     27 H           4.8855   -1.1127    6.1364 H       1  LIG1        0.0000
     28 H           4.1313   -0.0310    7.0995 H       1  LIG1        0.0000
     29 H           3.3800   -1.4213    6.6885 H       1  LIG1        0.0000
     30 H           1.6883    0.6205    6.1194 H       1  LIG1        0.0000
@<TRIPOS>UNITY_ATOM_ATTR
14 1
charge -1
@<TRIPOS>BOND
     1     1     2    1
     2     2     3    1
     3     3     4    1
     4     4     5    1
     5     5     6   ar
     6     6     7    1
     7     6     8   ar
     8     8     9   ar
     9     9    10    1
    10     9    11   ar
    11    11    12   ar
    12    12     5   ar
    13    12    13    1
    14    13    14    1
    15    13    15    2
    16     1    16    1
    17     1    17    1
    18     1    18    1
    19     2    19    1
    20     2    20    1
    21     3    21    1
    22     3    22    1
    23     7    23    1
    24     7    24    1
    25     7    25    1
    26     8    26    1
    27    10    27    1
    28    10    28    1
    29    10    29    1
    30    11    30    1
