@<TRIPOS>MOLECULE
*****
 30 30 0 0 0
SMALL
USER_CHARGES

@<TRIPOS>ATOM
      1 C1          0.4150    0.4150   -1.3402 C.3     1  LIG1        0.0000
      2 C2          1.2925    1.2925   -0.4626 C.3     1  LIG1        0.0000
      3 C3          1.0000    1.0000    1.0000 C.3     1  LIG1        0.0000
      4 O4          1.8198    1.8198    1.8198 O.2     1  LIG1        0.0000
      5 C5          2.3284    1.2202    2.9180 C.3     1  LIG1        0.0000
      6 C6          1.6056    1.2597    4.1064 C.3     1  LIG1        0.0000
      7 C7          0.2606    1.9637    4.1849 C.3     1  LIG1        0.0000
      8 C8          2.1025    0.6509    5.2542 C.3     1  LIG1        0.0000
      9 C9          3.3319    0.0021    5.2008 C.3     1  LIG1        0.0000
     10 C10         3.8878   -0.6671    6.4474 C.3     1  LIG1        0.0000
     11 C11         4.0650   -0.0447    4.0195 C.3     1  LIG1        0.0000
     12 C12         3.5567    0.5681    2.8786 C.3     1  LIG1        0.0000
     13 C13         4.3148    0.5236    1.6430 C.3     1  LIG1        0.0000
     14 O14         3.8645    1.0710    0.6134 O.2     1  LIG1        0.0000
     15 O15         5.3831   -0.0436    1.6087 O.2     1  LIG1       -1.0000
     16 H           0.6074    0.6074   -2.3024 H       1  LIG1        0.0000
     17 H           0.6074   -0.5473   -1.1477 H       1  LIG1        0.0000
     18 H          -0.5473    0.6074   -1.1477 H       1  LIG1        0.0000
     19 H           2.2548    1.1001   -0.6551 H       1  LIG1        0.0000
     20 H           1.1001    2.2548   -0.6551 H       1  LIG1        0.0000
     21 H           0.0377    1.1925    1.1925 H       1  LIG1        0.0000
     22 H           1.1925    0.0377    1.1925 H       1  LIG1        0.0000
     23 H          -0.1027    1.8856    5.1133 H       1  LIG1        0.0000
     24 H           0.3757    2.9293    3.9521 H       1  LIG1        0.0000
     25 H          -0.3759    1.5391    3.5411 H       1  LIG1        0.0000
     26 H           1.5821    0.6794    6.1077 H       1  LIG1        0.0000
     27 H           3.2469   -0.5449    7.2053 H       1  LIG1        0.0000
     28 H           4.0153   -1.6435    6.2728 H       1  LIG1        0.0000
     29 H           4.7668   -0.2532    6.6841 H       1  LIG1        0.0000
     30 H           4.9477   -0.5137    3.9907 H       1  LIG1        0.0000
@<TRIPOS>UNITY_ATOM_ATTR
14 1
charge -1
@<TRIPOS>BOND
     1     1     2    1
     2     2     3    1
     3     3     4    1
     4     4     5    1
     5     5     6   ar
     6     6     7    1
     7     6     8   ar
     8     8     9   ar
     9     9    10    1
    10     9    11   ar
    11    11    12   ar
    12    12     5   ar
    13    12    13    1
    14    13    14    1
    15    13    15    2
    16     1    16    1
    17     1    17    1
    18     1    18    1
    19     2    19    1
    20     2    20    1
    21     3    21    1
    22     3    22    1
    23     7    23    1
    24     7    24    1
    25     7    25    1
    26     8    26    1
    27    10    27    1
    28    10    28    1
    29    10    29    1
    30    11    30    1
