@<TRIPOS>MOLECULE
*****
 30 30 0 0 0
SMALL
USER_CHARGES

@<TRIPOS>ATOM
      1 C1          0.0389    1.0523   -1.2879 C.3     1  LIG1        0.0000
      2 C2          1.2925    1.2925   -0.4626 C.3     1  LIG1        0.0000
      3 C3          1.0000    1.0000    1.0000 C.3     1  LIG1        0.0000
      4 O4          1.8198    1.8198    1.8198 O.2     1  LIG1        0.0000
      5 C5          1.8151    3.1358    1.5157 C.3     1  LIG1        0.0000
      6 C6          0.8797    3.9673    2.1236 C.3     1  LIG1        0.0000
      7 C7         -0.1302    3.4186    3.1186 C.3     1  LIG1        0.0000
      8 C8          0.8499    5.3270    1.8316 C.3     1  LIG1        0.0000
      9 C9          1.7666    5.8466    0.9233 C.3     1  LIG1        0.0000
     10 C10         1.7458    7.3305    0.5939 C.3     1  LIG1        0.0000
     11 C11         2.7070    5.0267    0.3081 C.3     1  LIG1        0.0000
     12 C12         2.7260    3.6685    0.6090 C.3     1  LIG1        0.0000
     13 C13         3.7035    2.8069   -0.0279 C.3     1  LIG1        0.0000
     14 O14         3.7275    1.5857    0.2378 O.2     1  LIG1        0.0000
     15 O15         4.4957    3.2702   -0.8165 O.2     1  LIG1       -1.0000
     16 H           0.2314    1.2447   -2.2502 H       1  LIG1        0.0000
     17 H          -0.2475    0.0992   -1.1894 H       1  LIG1        0.0000
     18 H          -0.6919    1.6548   -0.9672 H       1  LIG1        0.0000
     19 H           2.0233    0.6900   -0.7834 H       1  LIG1        0.0000
     20 H           1.5789    2.2456   -0.5611 H       1  LIG1        0.0000
     21 H           0.0377    1.1925    1.1925 H       1  LIG1        0.0000
     22 H           1.1925    0.0377    1.1925 H       1  LIG1        0.0000
     23 H          -0.7139    4.1619    3.4453 H       1  LIG1        0.0000
     24 H          -0.6940    2.7236    2.6724 H       1  LIG1        0.0000
     25 H           0.3530    3.0094    3.8926 H       1  LIG1        0.0000
     26 H           0.1776    5.9240    2.2693 H       1  LIG1        0.0000
     27 H           1.0179    7.7772    1.1141 H       1  LIG1        0.0000
     28 H           2.6265    7.7380    0.8355 H       1  LIG1        0.0000
     29 H           1.5793    7.4524   -0.3845 H       1  LIG1        0.0000
     30 H           3.3622    5.4093   -0.3433 H       1  LIG1        0.0000
@<TRIPOS>UNITY_ATOM_ATTR
14 1
charge -1
@<TRIPOS>BOND
     1     1     2    1
     2     2     3    1
     3     3     4    1
     4     4     5    1
     5     5     6   ar
     6     6     7    1
     7     6     8   ar
     8     8     9   ar
     9     9    10    1
    10     9    11   ar
    11    11    12   ar
    12    12     5   ar
    13    12    13    1
    14    13    14    1
    15    13    15    2
    16     1    16    1
    17     1    17    1
    18     1    18    1
    19     2    19    1
    20     2    20    1
    21     3    21    1
    22     3    22    1
    23     7    23    1
    24     7    24    1
    25     7    25    1
    26     8    26    1
    27    10    27    1
    28    10    28    1
    29    10    29    1
    30    11    30    1
