@<TRIPOS>MOLECULE
*****
 30 30 0 0 0
SMALL
USER_CHARGES

@<TRIPOS>ATOM
      1 C1          0.4150    0.4150   -1.3402 C.3     1  LIG1        0.0000
      2 C2          1.2925    1.2925   -0.4626 C.3     1  LIG1        0.0000
      3 C3          1.0000    1.0000    1.0000 C.3     1  LIG1        0.0000
      4 O4          1.8198    1.8198    1.8198 O.2     1  LIG1        0.0000
      5 C5          1.2202    2.3284    2.9180 C.3     1  LIG1        0.0000
      6 C6          0.5806    3.5610    2.8301 C.3     1  LIG1        0.0000
      7 C7          0.5477    4.3377    1.5238 C.3     1  LIG1        0.0000
      8 C8         -0.0465    4.1108    3.9434 C.3     1  LIG1        0.0000
      9 C9         -0.0264    3.4139    5.1473 C.3     1  LIG1        0.0000
     10 C10        -0.7070    4.0025    6.3725 C.3     1  LIG1        0.0000
     11 C11         0.6096    2.1810    5.2493 C.3     1  LIG1        0.0000
     12 C12         1.2330    1.6422    4.1282 C.3     1  LIG1        0.0000
     13 C13         1.8981    0.3571    4.2262 C.3     1  LIG1        0.0000
     14 O14         2.4597   -0.1340    3.2233 O.2     1  LIG1        0.0000
     15 O15         1.9092   -0.2397    5.2787 O.2     1  LIG1       -1.0000
     16 H           0.6074    0.6074   -2.3024 H       1  LIG1        0.0000
     17 H           0.6074   -0.5473   -1.1477 H       1  LIG1        0.0000
     18 H          -0.5473    0.6074   -1.1477 H       1  LIG1        0.0000
     19 H           2.2548    1.1001   -0.6551 H       1  LIG1        0.0000
     20 H           1.1001    2.2548   -0.6551 H       1  LIG1        0.0000
     21 H           0.0377    1.1925    1.1925 H       1  LIG1        0.0000
     22 H           1.1925    0.0377    1.1925 H       1  LIG1        0.0000
     23 H           0.0465    5.1927    1.6569 H       1  LIG1        0.0000
     24 H           1.4827    4.5411    1.2333 H       1  LIG1        0.0000
     25 H           0.0922    3.7902    0.8218 H       1  LIG1        0.0000
     26 H          -0.5064    4.9964    3.8792 H       1  LIG1        0.0000
     27 H          -1.1138    4.8849    6.1361 H       1  LIG1        0.0000
     28 H          -1.4226    3.3793    6.6879 H       1  LIG1        0.0000
     29 H          -0.0323    4.1306    7.0994 H       1  LIG1        0.0000
     30 H           0.6186    1.6873    6.1188 H       1  LIG1        0.0000
@<TRIPOS>UNITY_ATOM_ATTR
14 1
charge -1
@<TRIPOS>BOND
     1     1     2    1
     2     2     3    1
     3     3     4    1
     4     4     5    1
     5     5     6   ar
     6     6     7    1
     7     6     8   ar
     8     8     9   ar
     9     9    10    1
    10     9    11   ar
    11    11    12   ar
    12    12     5   ar
    13    12    13    1
    14    13    14    1
    15    13    15    2
    16     1    16    1
    17     1    17    1
    18     1    18    1
    19     2    19    1
    20     2    20    1
    21     3    21    1
    22     3    22    1
    23     7    23    1
    24     7    24    1
    25     7    25    1
    26     8    26    1
    27    10    27    1
    28    10    28    1
    29    10    29    1
    30    11    30    1
