@<TRIPOS>MOLECULE
*****
 30 30 0 0 0
SMALL
USER_CHARGES

@<TRIPOS>ATOM
      1 C1          0.4150    0.4150   -1.3402 C.3     1  LIG1        0.0000
      2 C2          1.2925    1.2925   -0.4626 C.3     1  LIG1        0.0000
      3 C3          1.0000    1.0000    1.0000 C.3     1  LIG1        0.0000
      4 O4          1.8198    1.8198    1.8198 O.2     1  LIG1        0.0000
      5 C5          1.2202    2.3284    2.9180 C.3     1  LIG1        0.0000
      6 C6          1.2591    1.6053    4.1062 C.3     1  LIG1        0.0000
      7 C7          1.9624    0.2600    4.1846 C.3     1  LIG1        0.0000
      8 C8          0.6514    2.1028    5.2544 C.3     1  LIG1        0.0000
      9 C9          0.0031    3.3324    5.2011 C.3     1  LIG1        0.0000
     10 C10        -0.6660    3.8884    6.4477 C.3     1  LIG1        0.0000
     11 C11        -0.0437    4.0656    4.0198 C.3     1  LIG1        0.0000
     12 C12         0.5681    3.5567    2.8786 C.3     1  LIG1        0.0000
     13 C13         0.5242    4.3151    1.6432 C.3     1  LIG1        0.0000
     14 O14         1.0722    3.8651    0.6138 O.2     1  LIG1        0.0000
     15 O15        -0.0430    5.3834    1.6089 O.2     1  LIG1       -1.0000
     16 H           0.6074    0.6074   -2.3024 H       1  LIG1        0.0000
     17 H           0.6074   -0.5473   -1.1477 H       1  LIG1        0.0000
     18 H          -0.5473    0.6074   -1.1477 H       1  LIG1        0.0000
     19 H           2.2548    1.1001   -0.6551 H       1  LIG1        0.0000
     20 H           1.1001    2.2548   -0.6551 H       1  LIG1        0.0000
     21 H           0.0377    1.1925    1.1925 H       1  LIG1        0.0000
     22 H           1.1925    0.0377    1.1925 H       1  LIG1        0.0000
     23 H           1.8841   -0.1036    5.1128 H       1  LIG1        0.0000
     24 H           1.5377   -0.3762    3.5405 H       1  LIG1        0.0000
     25 H           2.9282    0.3747    3.9520 H       1  LIG1        0.0000
     26 H           0.6803    1.5826    6.1080 H       1  LIG1        0.0000
     27 H          -0.5439    3.2475    7.2056 H       1  LIG1        0.0000
     28 H          -0.2518    4.7673    6.6844 H       1  LIG1        0.0000
     29 H          -1.6423    4.0162    6.2732 H       1  LIG1        0.0000
     30 H          -0.5119    4.9487    3.9913 H       1  LIG1        0.0000
@<TRIPOS>UNITY_ATOM_ATTR
14 1
charge -1
@<TRIPOS>BOND
     1     1     2    1
     2     2     3    1
     3     3     4    1
     4     4     5    1
     5     5     6   ar
     6     6     7    1
     7     6     8   ar
     8     8     9   ar
     9     9    10    1
    10     9    11   ar
    11    11    12   ar
    12    12     5   ar
    13    12    13    1
    14    13    14    1
    15    13    15    2
    16     1    16    1
    17     1    17    1
    18     1    18    1
    19     2    19    1
    20     2    20    1
    21     3    21    1
    22     3    22    1
    23     7    23    1
    24     7    24    1
    25     7    25    1
    26     8    26    1
    27    10    27    1
    28    10    28    1
    29    10    29    1
    30    11    30    1
