@<TRIPOS>MOLECULE
*****
 30 30 0 0 0
SMALL
USER_CHARGES

@<TRIPOS>ATOM
      1 C1          1.0523    0.0389   -1.2879 C.3     1  LIG1        0.0000
      2 C2          1.2925    1.2925   -0.4626 C.3     1  LIG1        0.0000
      3 C3          1.0000    1.0000    1.0000 C.3     1  LIG1        0.0000
      4 O4          1.8198    1.8198    1.8198 O.2     1  LIG1        0.0000
      5 C5          3.1358    1.8151    1.5157 C.3     1  LIG1        0.0000
      6 C6          3.9674    0.8801    2.1241 C.3     1  LIG1        0.0000
      7 C7          3.4189   -0.1293    3.1196 C.3     1  LIG1        0.0000
      8 C8          5.3269    0.8496    1.8312 C.3     1  LIG1        0.0000
      9 C9          5.8464    1.7659    0.9225 C.3     1  LIG1        0.0000
     10 C10         7.3302    1.7449    0.5929 C.3     1  LIG1        0.0000
     11 C11         5.0264    2.7062    0.3072 C.3     1  LIG1        0.0000
     12 C12         3.6685    2.7260    0.6090 C.3     1  LIG1        0.0000
     13 C13         2.8068    3.7030   -0.0284 C.3     1  LIG1        0.0000
     14 O14         1.5855    3.7267    0.2369 O.2     1  LIG1        0.0000
     15 O15         3.2701    4.4952   -0.8170 O.2     1  LIG1       -1.0000
     16 H           1.2447    0.2314   -2.2502 H       1  LIG1        0.0000
     17 H           1.6548   -0.6919   -0.9672 H       1  LIG1        0.0000
     18 H           0.0992   -0.2475   -1.1894 H       1  LIG1        0.0000
     19 H           2.2456    1.5789   -0.5611 H       1  LIG1        0.0000
     20 H           0.6900    2.0233   -0.7834 H       1  LIG1        0.0000
     21 H           0.0377    1.1925    1.1925 H       1  LIG1        0.0000
     22 H           1.1925    0.0377    1.1925 H       1  LIG1        0.0000
     23 H           4.1622   -0.7127    3.4467 H       1  LIG1        0.0000
     24 H           3.0095    0.3542    3.8934 H       1  LIG1        0.0000
     25 H           2.7239   -0.6934    2.6737 H       1  LIG1        0.0000
     26 H           5.9238    0.1769    2.2686 H       1  LIG1        0.0000
     27 H           7.7770    1.0171    1.1132 H       1  LIG1        0.0000
     28 H           7.4520    1.5782   -0.3856 H       1  LIG1        0.0000
     29 H           7.7378    2.6256    0.8342 H       1  LIG1        0.0000
     30 H           5.4089    3.3608   -0.3449 H       1  LIG1        0.0000
@<TRIPOS>UNITY_ATOM_ATTR
14 1
charge -1
@<TRIPOS>BOND
     1     1     2    1
     2     2     3    1
     3     3     4    1
     4     4     5    1
     5     5     6   ar
     6     6     7    1
     7     6     8   ar
     8     8     9   ar
     9     9    10    1
    10     9    11   ar
    11    11    12   ar
    12    12     5   ar
    13    12    13    1
    14    13    14    1
    15    13    15    2
    16     1    16    1
    17     1    17    1
    18     1    18    1
    19     2    19    1
    20     2    20    1
    21     3    21    1
    22     3    22    1
    23     7    23    1
    24     7    24    1
    25     7    25    1
    26     8    26    1
    27    10    27    1
    28    10    28    1
    29    10    29    1
    30    11    30    1
