@<TRIPOS>MOLECULE
*****
 30 30 0 0 0
SMALL
USER_CHARGES

@<TRIPOS>ATOM
      1 C1          0.0389    1.0523   -1.2879 C.3     1  LIG1        0.0000
      2 C2          1.2925    1.2925   -0.4626 C.3     1  LIG1        0.0000
      3 C3          1.0000    1.0000    1.0000 C.3     1  LIG1        0.0000
      4 O4          1.8198    1.8198    1.8198 O.2     1  LIG1        0.0000
      5 C5          1.8151    3.1358    1.5157 C.3     1  LIG1        0.0000
      6 C6          2.7458    3.6227    0.6032 C.3     1  LIG1        0.0000
      7 C7          3.7610    2.7000   -0.0517 C.3     1  LIG1        0.0000
      8 C8          2.7658    4.9728    0.2690 C.3     1  LIG1        0.0000
      9 C9          1.8442    5.8320    0.8587 C.3     1  LIG1        0.0000
     10 C10         1.8544    7.3100    0.5036 C.3     1  LIG1        0.0000
     11 C11         0.9085    5.3587    1.7727 C.3     1  LIG1        0.0000
     12 C12         0.8992    4.0060    2.0982 C.3     1  LIG1        0.0000
     13 C13        -0.0734    3.5046    3.0501 C.3     1  LIG1        0.0000
     14 O14        -0.0887    2.2905    3.3472 O.2     1  LIG1        0.0000
     15 O15        -0.8700    4.2615    3.5567 O.2     1  LIG1       -1.0000
     16 H           0.2314    1.2447   -2.2502 H       1  LIG1        0.0000
     17 H          -0.2475    0.0992   -1.1894 H       1  LIG1        0.0000
     18 H          -0.6919    1.6548   -0.9672 H       1  LIG1        0.0000
     19 H           2.0233    0.6900   -0.7834 H       1  LIG1        0.0000
     20 H           1.5789    2.2456   -0.5611 H       1  LIG1        0.0000
     21 H           0.0377    1.1925    1.1925 H       1  LIG1        0.0000
     22 H           1.1925    0.0377    1.1925 H       1  LIG1        0.0000
     23 H           4.3401    3.2285   -0.6724 H       1  LIG1        0.0000
     24 H           4.3288    2.2750    0.6533 H       1  LIG1        0.0000
     25 H           3.2818    1.9893   -0.5670 H       1  LIG1        0.0000
     26 H           3.4348    5.3217   -0.3873 H       1  LIG1        0.0000
     27 H           2.5801    7.4882   -0.1610 H       1  LIG1        0.0000
     28 H           0.9713    7.5642    0.1091 H       1  LIG1        0.0000
     29 H           2.0185    7.8500    1.3291 H       1  LIG1        0.0000
     30 H           0.2497    5.9838    2.1913 H       1  LIG1        0.0000
@<TRIPOS>UNITY_ATOM_ATTR
14 1
charge -1
@<TRIPOS>BOND
     1     1     2    1
     2     2     3    1
     3     3     4    1
     4     4     5    1
     5     5     6   ar
     6     6     7    1
     7     6     8   ar
     8     8     9   ar
     9     9    10    1
    10     9    11   ar
    11    11    12   ar
    12    12     5   ar
    13    12    13    1
    14    13    14    1
    15    13    15    2
    16     1    16    1
    17     1    17    1
    18     1    18    1
    19     2    19    1
    20     2    20    1
    21     3    21    1
    22     3    22    1
    23     7    23    1
    24     7    24    1
    25     7    25    1
    26     8    26    1
    27    10    27    1
    28    10    28    1
    29    10    29    1
    30    11    30    1
