@<TRIPOS>MOLECULE
*****
 30 30 0 0 0
SMALL
USER_CHARGES

@<TRIPOS>ATOM
      1 C1          0.0389    1.0523   -1.2879 C.3     1  LIG1        0.0000
      2 C2          1.2925    1.2925   -0.4626 C.3     1  LIG1        0.0000
      3 C3          1.0000    1.0000    1.0000 C.3     1  LIG1        0.0000
      4 O4          1.8198    1.8198    1.8198 O.2     1  LIG1        0.0000
      5 C5          1.1753    2.7954    2.4960 C.3     1  LIG1        0.0000
      6 C6          1.0251    4.0446    1.9020 C.3     1  LIG1        0.0000
      7 C7          1.5728    4.3245    0.5118 C.3     1  LIG1        0.0000
      8 C8          0.3656    5.0694    2.5726 C.3     1  LIG1        0.0000
      9 C9         -0.1421    4.8312    3.8457 C.3     1  LIG1        0.0000
     10 C10        -0.8647    5.9417    4.5909 C.3     1  LIG1        0.0000
     11 C11         0.0012    3.5872    4.4514 C.3     1  LIG1        0.0000
     12 C12         0.6629    2.5707    3.7698 C.3     1  LIG1        0.0000
     13 C13         0.8163    1.2708    4.3943 C.3     1  LIG1        0.0000
     14 O14         1.4088    0.3522    3.7880 O.2     1  LIG1        0.0000
     15 O15         0.3707    1.0754    5.5021 O.2     1  LIG1       -1.0000
     16 H           0.2314    1.2447   -2.2502 H       1  LIG1        0.0000
     17 H          -0.2475    0.0992   -1.1894 H       1  LIG1        0.0000
     18 H          -0.6919    1.6548   -0.9672 H       1  LIG1        0.0000
     19 H           2.0233    0.6900   -0.7834 H       1  LIG1        0.0000
     20 H           1.5789    2.2456   -0.5611 H       1  LIG1        0.0000
     21 H           0.0377    1.1925    1.1925 H       1  LIG1        0.0000
     22 H           1.1925    0.0377    1.1925 H       1  LIG1        0.0000
     23 H           1.3690    5.2699    0.2574 H       1  LIG1        0.0000
     24 H           2.5630    4.1848    0.5093 H       1  LIG1        0.0000
     25 H           1.1468    3.7031   -0.1457 H       1  LIG1        0.0000
     26 H           0.2577    5.9668    2.1447 H       1  LIG1        0.0000
     27 H          -0.8833    6.7658    4.0248 H       1  LIG1        0.0000
     28 H          -1.8011    5.6540    4.7917 H       1  LIG1        0.0000
     29 H          -0.3849    6.1360    5.4466 H       1  LIG1        0.0000
     30 H          -0.3673    3.4252    5.3668 H       1  LIG1        0.0000
@<TRIPOS>UNITY_ATOM_ATTR
14 1
charge -1
@<TRIPOS>BOND
     1     1     2    1
     2     2     3    1
     3     3     4    1
     4     4     5    1
     5     5     6   ar
     6     6     7    1
     7     6     8   ar
     8     8     9   ar
     9     9    10    1
    10     9    11   ar
    11    11    12   ar
    12    12     5   ar
    13    12    13    1
    14    13    14    1
    15    13    15    2
    16     1    16    1
    17     1    17    1
    18     1    18    1
    19     2    19    1
    20     2    20    1
    21     3    21    1
    22     3    22    1
    23     7    23    1
    24     7    24    1
    25     7    25    1
    26     8    26    1
    27    10    27    1
    28    10    28    1
    29    10    29    1
    30    11    30    1
