@<TRIPOS>MOLECULE
*****
 30 30 0 0 0
SMALL
USER_CHARGES

@<TRIPOS>ATOM
      1 C1          0.4150    0.4150   -1.3402 C.3     1  LIG1        0.0000
      2 C2          1.2925    1.2925   -0.4626 C.3     1  LIG1        0.0000
      3 C3          1.0000    1.0000    1.0000 C.3     1  LIG1        0.0000
      4 O4          1.8198    1.8198    1.8198 O.2     1  LIG1        0.0000
      5 C5          1.6579    1.6579    3.1509 C.3     1  LIG1        0.0000
      6 C6          2.4362    0.7167    3.8176 C.3     1  LIG1        0.0000
      7 C7          3.4594   -0.1259    3.0734 C.3     1  LIG1        0.0000
      8 C8          2.2932    0.5271    5.1883 C.3     1  LIG1        0.0000
      9 C9          1.3616    1.2894    5.8856 C.3     1  LIG1        0.0000
     10 C10         1.1938    1.0928    7.3836 C.3     1  LIG1        0.0000
     11 C11         0.5767    2.2335    5.2315 C.3     1  LIG1        0.0000
     12 C12         0.7297    2.4133    3.8604 C.3     1  LIG1        0.0000
     13 C13        -0.0845    3.3958    3.1712 C.3     1  LIG1        0.0000
     14 O14         0.0476    3.5639    1.9396 O.2     1  LIG1        0.0000
     15 O15        -0.8917    4.0528    3.7883 O.2     1  LIG1       -1.0000
     16 H           0.6074    0.6074   -2.3024 H       1  LIG1        0.0000
     17 H           0.6074   -0.5473   -1.1477 H       1  LIG1        0.0000
     18 H          -0.5473    0.6074   -1.1477 H       1  LIG1        0.0000
     19 H           2.2548    1.1001   -0.6551 H       1  LIG1        0.0000
     20 H           1.1001    2.2548   -0.6551 H       1  LIG1        0.0000
     21 H           0.0377    1.1925    1.1925 H       1  LIG1        0.0000
     22 H           1.1925    0.0377    1.1925 H       1  LIG1        0.0000
     23 H           3.9167   -0.7400    3.7166 H       1  LIG1        0.0000
     24 H           2.9982   -0.6648    2.3685 H       1  LIG1        0.0000
     25 H           4.1365    0.4729    2.6455 H       1  LIG1        0.0000
     26 H           2.8534   -0.1491    5.6666 H       1  LIG1        0.0000
     27 H           1.8250    0.3846    7.6996 H       1  LIG1        0.0000
     28 H           1.3920    1.9513    7.8567 H       1  LIG1        0.0000
     29 H           0.2539    0.8134    7.5799 H       1  LIG1        0.0000
     30 H          -0.0902    2.7770    5.7413 H       1  LIG1        0.0000
@<TRIPOS>UNITY_ATOM_ATTR
14 1
charge -1
@<TRIPOS>BOND
     1     1     2    1
     2     2     3    1
     3     3     4    1
     4     4     5    1
     5     5     6   ar
     6     6     7    1
     7     6     8   ar
     8     8     9   ar
     9     9    10    1
    10     9    11   ar
    11    11    12   ar
    12    12     5   ar
    13    12    13    1
    14    13    14    1
    15    13    15    2
    16     1    16    1
    17     1    17    1
    18     1    18    1
    19     2    19    1
    20     2    20    1
    21     3    21    1
    22     3    22    1
    23     7    23    1
    24     7    24    1
    25     7    25    1
    26     8    26    1
    27    10    27    1
    28    10    28    1
    29    10    29    1
    30    11    30    1
