@<TRIPOS>MOLECULE
*****
 30 30 0 0 0
SMALL
USER_CHARGES

@<TRIPOS>ATOM
      1 C1          1.0523    0.0389   -1.2879 C.3     1  LIG1        0.0000
      2 C2          1.2925    1.2925   -0.4626 C.3     1  LIG1        0.0000
      3 C3          1.0000    1.0000    1.0000 C.3     1  LIG1        0.0000
      4 O4          1.8198    1.8198    1.8198 O.2     1  LIG1        0.0000
      5 C5          1.3930    3.0909    1.9827 C.3     1  LIG1        0.0000
      6 C6          1.8177    4.0672    1.0868 C.3     1  LIG1        0.0000
      7 C7          2.7490    3.7251   -0.0649 C.3     1  LIG1        0.0000
      8 C8          1.3950    5.3850    1.2277 C.3     1  LIG1        0.0000
      9 C9          0.5426    5.7163    2.2759 C.3     1  LIG1        0.0000
     10 C10         0.0729    7.1523    2.4428 C.3     1  LIG1        0.0000
     11 C11         0.1106    4.7503    3.1789 C.3     1  LIG1        0.0000
     12 C12         0.5408    3.4360    3.0268 C.3     1  LIG1        0.0000
     13 C13         0.0947    2.4228    3.9638 C.3     1  LIG1        0.0000
     14 O14         0.4760    1.2396    3.8334 O.2     1  LIG1        0.0000
     15 O15        -0.6466    2.7230    4.8719 O.2     1  LIG1       -1.0000
     16 H           1.2447    0.2314   -2.2502 H       1  LIG1        0.0000
     17 H           1.6548   -0.6919   -0.9672 H       1  LIG1        0.0000
     18 H           0.0992   -0.2475   -1.1894 H       1  LIG1        0.0000
     19 H           2.2456    1.5789   -0.5611 H       1  LIG1        0.0000
     20 H           0.6900    2.0233   -0.7834 H       1  LIG1        0.0000
     21 H           0.0377    1.1925    1.1925 H       1  LIG1        0.0000
     22 H           1.1925    0.0377    1.1925 H       1  LIG1        0.0000
     23 H           2.9405    4.5509   -0.5952 H       1  LIG1        0.0000
     24 H           3.6048    3.3554    0.2970 H       1  LIG1        0.0000
     25 H           2.3143    3.0439   -0.6540 H       1  LIG1        0.0000
     26 H           1.7003    6.0859    0.5830 H       1  LIG1        0.0000
     27 H           0.4687    7.7186    1.7199 H       1  LIG1        0.0000
     28 H          -0.9248    7.1857    2.3837 H       1  LIG1        0.0000
     29 H           0.3657    7.4974    3.3345 H       1  LIG1        0.0000
     30 H          -0.5024    4.9979    3.9292 H       1  LIG1        0.0000
@<TRIPOS>UNITY_ATOM_ATTR
14 1
charge -1
@<TRIPOS>BOND
     1     1     2    1
     2     2     3    1
     3     3     4    1
     4     4     5    1
     5     5     6   ar
     6     6     7    1
     7     6     8   ar
     8     8     9   ar
     9     9    10    1
    10     9    11   ar
    11    11    12   ar
    12    12     5   ar
    13    12    13    1
    14    13    14    1
    15    13    15    2
    16     1    16    1
    17     1    17    1
    18     1    18    1
    19     2    19    1
    20     2    20    1
    21     3    21    1
    22     3    22    1
    23     7    23    1
    24     7    24    1
    25     7    25    1
    26     8    26    1
    27    10    27    1
    28    10    28    1
    29    10    29    1
    30    11    30    1
