@<TRIPOS>MOLECULE
*****
 30 30 0 0 0
SMALL
USER_CHARGES

@<TRIPOS>ATOM
      1 C1          0.4150    0.4150   -1.3402 C.3     1  LIG1        0.0000
      2 C2          1.2925    1.2925   -0.4626 C.3     1  LIG1        0.0000
      3 C3          1.0000    1.0000    1.0000 C.3     1  LIG1        0.0000
      4 O4          1.8198    1.8198    1.8198 O.2     1  LIG1        0.0000
      5 C5          1.6579    1.6579    3.1509 C.3     1  LIG1        0.0000
      6 C6          0.7172    2.4367    3.8178 C.3     1  LIG1        0.0000
      7 C7         -0.1249    3.4604    3.0736 C.3     1  LIG1        0.0000
      8 C8          0.5267    2.2928    5.1882 C.3     1  LIG1        0.0000
      9 C9          1.2886    1.3608    5.8854 C.3     1  LIG1        0.0000
     10 C10         1.0919    1.1928    7.3833 C.3     1  LIG1        0.0000
     11 C11         2.2327    0.5759    5.2313 C.3     1  LIG1        0.0000
     12 C12         2.4133    0.7297    3.8604 C.3     1  LIG1        0.0000
     13 C13         3.3953   -0.0850    3.1710 C.3     1  LIG1        0.0000
     14 O14         3.5629    0.0467    1.9393 O.2     1  LIG1        0.0000
     15 O15         4.0524   -0.8922    3.7881 O.2     1  LIG1       -1.0000
     16 H           0.6074    0.6074   -2.3024 H       1  LIG1        0.0000
     17 H           0.6074   -0.5473   -1.1477 H       1  LIG1        0.0000
     18 H          -0.5473    0.6074   -1.1477 H       1  LIG1        0.0000
     19 H           2.2548    1.1001   -0.6551 H       1  LIG1        0.0000
     20 H           1.1001    2.2548   -0.6551 H       1  LIG1        0.0000
     21 H           0.0377    1.1925    1.1925 H       1  LIG1        0.0000
     22 H           1.1925    0.0377    1.1925 H       1  LIG1        0.0000
     23 H          -0.7387    3.9180    3.7169 H       1  LIG1        0.0000
     24 H           0.4742    4.1372    2.6457 H       1  LIG1        0.0000
     25 H          -0.6641    2.9995    2.3688 H       1  LIG1        0.0000
     26 H          -0.1499    2.8526    5.6665 H       1  LIG1        0.0000
     27 H           0.3837    1.8242    7.6994 H       1  LIG1        0.0000
     28 H           0.8122    0.2530    7.5795 H       1  LIG1        0.0000
     29 H           1.9503    1.3908    7.8566 H       1  LIG1        0.0000
     30 H           2.7755   -0.0917    5.7409 H       1  LIG1        0.0000
@<TRIPOS>UNITY_ATOM_ATTR
14 1
charge -1
@<TRIPOS>BOND
     1     1     2    1
     2     2     3    1
     3     3     4    1
     4     4     5    1
     5     5     6   ar
     6     6     7    1
     7     6     8   ar
     8     8     9   ar
     9     9    10    1
    10     9    11   ar
    11    11    12   ar
    12    12     5   ar
    13    12    13    1
    14    13    14    1
    15    13    15    2
    16     1    16    1
    17     1    17    1
    18     1    18    1
    19     2    19    1
    20     2    20    1
    21     3    21    1
    22     3    22    1
    23     7    23    1
    24     7    24    1
    25     7    25    1
    26     8    26    1
    27    10    27    1
    28    10    28    1
    29    10    29    1
    30    11    30    1
