@<TRIPOS>MOLECULE
*****
 30 30 0 0 0
SMALL
USER_CHARGES

@<TRIPOS>ATOM
      1 C1          1.0523    0.0389   -1.2879 C.3     1  LIG1        0.0000
      2 C2          1.2925    1.2925   -0.4626 C.3     1  LIG1        0.0000
      3 C3          1.0000    1.0000    1.0000 C.3     1  LIG1        0.0000
      4 O4          1.8198    1.8198    1.8198 O.2     1  LIG1        0.0000
      5 C5          3.1358    1.8151    1.5157 C.3     1  LIG1        0.0000
      6 C6          3.6225    2.7454    0.6027 C.3     1  LIG1        0.0000
      7 C7          2.6997    3.7601   -0.0528 C.3     1  LIG1        0.0000
      8 C8          4.9729    2.7662    0.2694 C.3     1  LIG1        0.0000
      9 C9          5.8322    1.8449    0.8595 C.3     1  LIG1        0.0000
     10 C10         7.3102    1.8553    0.5046 C.3     1  LIG1        0.0000
     11 C11         5.3589    0.9093    1.7737 C.3     1  LIG1        0.0000
     12 C12         4.0060    0.8992    2.0982 C.3     1  LIG1        0.0000
     13 C13         3.5047   -0.0729    3.0507 C.3     1  LIG1        0.0000
     14 O14         2.2907   -0.0878    3.3482 O.2     1  LIG1        0.0000
     15 O15         4.2616   -0.8695    3.5573 O.2     1  LIG1       -1.0000
     16 H           1.2447    0.2314   -2.2502 H       1  LIG1        0.0000
     17 H           1.6548   -0.6919   -0.9672 H       1  LIG1        0.0000
     18 H           0.0992   -0.2475   -1.1894 H       1  LIG1        0.0000
     19 H           2.2456    1.5789   -0.5611 H       1  LIG1        0.0000
     20 H           0.6900    2.0233   -0.7834 H       1  LIG1        0.0000
     21 H           0.0377    1.1925    1.1925 H       1  LIG1        0.0000
     22 H           1.1925    0.0377    1.1925 H       1  LIG1        0.0000
     23 H           3.2282    4.3389   -0.6738 H       1  LIG1        0.0000
     24 H           1.9891    3.2806   -0.5677 H       1  LIG1        0.0000
     25 H           2.2748    4.3282    0.6519 H       1  LIG1        0.0000
     26 H           5.3219    3.4355   -0.3865 H       1  LIG1        0.0000
     27 H           7.4884    2.5809   -0.1600 H       1  LIG1        0.0000
     28 H           7.8501    2.0196    1.3302 H       1  LIG1        0.0000
     29 H           7.5646    0.9722    0.1103 H       1  LIG1        0.0000
     30 H           5.9842    0.2511    2.1929 H       1  LIG1        0.0000
@<TRIPOS>UNITY_ATOM_ATTR
14 1
charge -1
@<TRIPOS>BOND
     1     1     2    1
     2     2     3    1
     3     3     4    1
     4     4     5    1
     5     5     6   ar
     6     6     7    1
     7     6     8   ar
     8     8     9   ar
     9     9    10    1
    10     9    11   ar
    11    11    12   ar
    12    12     5   ar
    13    12    13    1
    14    13    14    1
    15    13    15    2
    16     1    16    1
    17     1    17    1
    18     1    18    1
    19     2    19    1
    20     2    20    1
    21     3    21    1
    22     3    22    1
    23     7    23    1
    24     7    24    1
    25     7    25    1
    26     8    26    1
    27    10    27    1
    28    10    28    1
    29    10    29    1
    30    11    30    1
