@<TRIPOS>MOLECULE

  25   26
SMALL
USER_CHARGES
@<TRIPOS>ATOM
   1 C1           1.8066    -0.6008     0.7492 C.3          1    LIG   0.0000
   2 S2           1.0000     1.0000     1.0000 S.o          1    LIG   0.0000
   3 O3           0.7936     1.6640    -0.3178 O.2          1    LIG   0.0000
   4 C4           2.0047     2.0047     2.0047 C.ar         1    LIG   0.0000
   5 C5           1.8288     1.9508     3.3836 C.ar         1    LIG   0.0000
   6 C6           2.6148     2.7409     4.2165 C.ar         1    LIG   0.0000
   7 C7           3.5765     3.5849     3.6703 C.ar         1    LIG   0.0000
   8 C8           3.7526     3.6384     2.2912 C.ar         1    LIG   0.0000
   9 C9           2.9664     2.8489     1.4586 C.ar         1    LIG   0.0000
  10 C10          3.1494     2.9056     0.0201 C.ar         1    LIG   0.0000
  11 C11          4.3036     2.3806    -0.5508 C.ar         1    LIG   0.0000
  12 C12          4.4561     2.4464    -1.9319 C.ar         1    LIG   0.0000
  13 N13          3.4902     3.0107    -2.6732 N.ar         1    LIG   0.0000
  14 N14          2.4158     3.4998    -2.1447 N.ar         1    LIG   0.0000
  15 C15          2.1977     3.4752    -0.8200 C.ar         1    LIG   0.0000
  16 H            1.9451    -1.0465     1.6337 H            1    LIG   0.0000
  17 H            1.2292    -1.1782     0.1719 H            1    LIG   0.0000
  18 H            2.6910    -0.4623     0.3036 H            1    LIG   0.0000
  19 H            1.1374     1.3442     3.7762 H            1    LIG   0.0000
  20 H            2.4885     2.7021     5.2078 H            1    LIG   0.0000
  21 H            4.1411     4.1531     4.2689 H            1    LIG   0.0000
  22 H            4.4444     4.2445     1.8986 H            1    LIG   0.0000
  23 H            5.0105     1.9637     0.0206 H            1    LIG   0.0000
  24 H            5.2768     2.0770    -2.3678 H            1    LIG   0.0000
  25 H            1.3579     3.8631    -0.4402 H            1    LIG   0.0000
@<TRIPOS>BOND
   1        1        2 1
   2        2        3 2
   3        2        4 1
   4        4        5 ar
   5        5        6 ar
   6        6        7 ar
   7        7        8 ar
   8        8        9 ar
   9        9        4 ar
  10        9       10 1
  11       10       11 ar
  12       11       12 ar
  13       12       13 ar
  14       13       14 ar
  15       14       15 ar
  16       15       10 ar
  17        1       16 1
  18        1       17 1
  19        1       18 1
  20        5       19 1
  21        6       20 1
  22        7       21 1
  23        8       22 1
  24       11       23 1
  25       12       24 1
  26       15       25 1

@<TRIPOS>MOLECULE

  25   26
SMALL
USER_CHARGES
@<TRIPOS>ATOM
   1 C1           1.8066    -0.6008     0.7492 C.3          1    LIG   0.0000
   2 S2           1.0000     1.0000     1.0000 S.o          1    LIG   0.0000
   3 O3           0.7936     1.6640    -0.3178 O.2          1    LIG   0.0000
   4 C4           2.0047     2.0047     2.0047 C.ar         1    LIG   0.0000
   5 C5           1.8288     1.9508     3.3836 C.ar         1    LIG   0.0000
   6 C6           2.6148     2.7409     4.2165 C.ar         1    LIG   0.0000
   7 C7           3.5765     3.5849     3.6703 C.ar         1    LIG   0.0000
   8 C8           3.7526     3.6384     2.2912 C.ar         1    LIG   0.0000
   9 C9           2.9664     2.8489     1.4586 C.ar         1    LIG   0.0000
  10 C10          3.1494     2.9056     0.0201 C.ar         1    LIG   0.0000
  11 C11          2.7681     4.0447    -0.6806 C.ar         1    LIG   0.0000
  12 C12          2.9539     4.0754    -2.0588 C.ar         1    LIG   0.0000
  13 N13          3.4943     3.0115    -2.6726 N.ar         1    LIG   0.0000
  14 N14          3.8497     1.9509    -2.0233 N.ar         1    LIG   0.0000
  15 C15          3.7004     1.8455    -0.6930 C.ar         1    LIG   0.0000
  16 H            1.9451    -1.0465     1.6337 H            1    LIG   0.0000
  17 H            1.2292    -1.1782     0.1719 H            1    LIG   0.0000
  18 H            2.6910    -0.4623     0.3036 H            1    LIG   0.0000
  19 H            1.1374     1.3442     3.7762 H            1    LIG   0.0000
  20 H            2.4885     2.7021     5.2078 H            1    LIG   0.0000
  21 H            4.1411     4.1531     4.2689 H            1    LIG   0.0000
  22 H            4.4444     4.2445     1.8986 H            1    LIG   0.0000
  23 H            2.3679     4.8267    -0.2028 H            1    LIG   0.0000
  24 H            2.6876     4.8820    -2.5866 H            1    LIG   0.0000
  25 H            3.9830     1.0118    -0.2186 H            1    LIG   0.0000
@<TRIPOS>BOND
   1        1        2 1
   2        2        3 2
   3        2        4 1
   4        4        5 ar
   5        5        6 ar
   6        6        7 ar
   7        7        8 ar
   8        8        9 ar
   9        9        4 ar
  10        9       10 1
  11       10       11 ar
  12       11       12 ar
  13       12       13 ar
  14       13       14 ar
  15       14       15 ar
  16       15       10 ar
  17        1       16 1
  18        1       17 1
  19        1       18 1
  20        5       19 1
  21        6       20 1
  22        7       21 1
  23        8       22 1
  24       11       23 1
  25       12       24 1
  26       15       25 1

@<TRIPOS>MOLECULE

  25   26
SMALL
USER_CHARGES
@<TRIPOS>ATOM
   1 C1           1.8066    -0.6008     0.7492 C.3          1    LIG   0.0000
   2 S2           1.0000     1.0000     1.0000 S.o          1    LIG   0.0000
   3 O3           0.7936     1.6640    -0.3178 O.2          1    LIG   0.0000
   4 C4           2.0047     2.0047     2.0047 C.ar         1    LIG   0.0000
   5 C5           2.8247     1.3918     2.9467 C.ar         1    LIG   0.0000
   6 C6           3.6406     2.1650     3.7667 C.ar         1    LIG   0.0000
   7 C7           3.6362     3.5508     3.6446 C.ar         1    LIG   0.0000
   8 C8           2.8164     4.1636     2.7022 C.ar         1    LIG   0.0000
   9 C9           2.0003     3.3907     1.8829 C.ar         1    LIG   0.0000
  10 C10          1.1445     4.0300     0.9007 C.ar         1    LIG   0.0000
  11 C11          1.6767     4.9768     0.0323 C.ar         1    LIG   0.0000
  12 C12          0.8365     5.5755    -0.9007 C.ar         1    LIG   0.0000
  13 N13         -0.4583     5.2249    -0.9389 N.ar         1    LIG   0.0000
  14 N14         -0.9558     4.3447    -0.1324 N.ar         1    LIG   0.0000
  15 C15         -0.2091     3.7252     0.7958 C.ar         1    LIG   0.0000
  16 H            1.9451    -1.0465     1.6337 H            1    LIG   0.0000
  17 H            1.2292    -1.1782     0.1719 H            1    LIG   0.0000
  18 H            2.6910    -0.4623     0.3036 H            1    LIG   0.0000
  19 H            2.8277     0.3957     3.0344 H            1    LIG   0.0000
  20 H            4.2302     1.7245     4.4437 H            1    LIG   0.0000
  21 H            4.2223     4.1065     4.2343 H            1    LIG   0.0000
  22 H            2.8138     5.1597     2.6139 H            1    LIG   0.0000
  23 H            2.6450     5.2226     0.0778 H            1    LIG   0.0000
  24 H            1.1935     6.2600    -1.5363 H            1    LIG   0.0000
  25 H           -0.6224     3.0501     1.4069 H            1    LIG   0.0000
@<TRIPOS>BOND
   1        1        2 1
   2        2        3 2
   3        2        4 1
   4        4        5 ar
   5        5        6 ar
   6        6        7 ar
   7        7        8 ar
   8        8        9 ar
   9        9        4 ar
  10        9       10 1
  11       10       11 ar
  12       11       12 ar
  13       12       13 ar
  14       13       14 ar
  15       14       15 ar
  16       15       10 ar
  17        1       16 1
  18        1       17 1
  19        1       18 1
  20        5       19 1
  21        6       20 1
  22        7       21 1
  23        8       22 1
  24       11       23 1
  25       12       24 1
  26       15       25 1

@<TRIPOS>MOLECULE

  25   26
SMALL
USER_CHARGES
@<TRIPOS>ATOM
   1 C1           1.8066    -0.6008     0.7492 C.3          1    LIG   0.0000
   2 S2           1.0000     1.0000     1.0000 S.o          1    LIG   0.0000
   3 O3           0.7936     1.6640    -0.3178 O.2          1    LIG   0.0000
   4 C4           2.0047     2.0047     2.0047 C.ar         1    LIG   0.0000
   5 C5           2.8247     1.3918     2.9467 C.ar         1    LIG   0.0000
   6 C6           3.6406     2.1650     3.7667 C.ar         1    LIG   0.0000
   7 C7           3.6362     3.5508     3.6446 C.ar         1    LIG   0.0000
   8 C8           2.8164     4.1636     2.7022 C.ar         1    LIG   0.0000
   9 C9           2.0003     3.3907     1.8829 C.ar         1    LIG   0.0000
  10 C10          1.1445     4.0300     0.9007 C.ar         1    LIG   0.0000
  11 C11         -0.2028     3.6920     0.8337 C.ar         1    LIG   0.0000
  12 C12         -1.0030     4.3188    -0.1159 C.ar         1    LIG   0.0000
  13 N13         -0.4573     5.2289    -0.9372 N.ar         1    LIG   0.0000
  14 N14          0.7955     5.5450    -0.8771 N.ar         1    LIG   0.0000
  15 C15          1.6311     4.9824     0.0107 C.ar         1    LIG   0.0000
  16 H            1.9451    -1.0465     1.6337 H            1    LIG   0.0000
  17 H            1.2292    -1.1782     0.1719 H            1    LIG   0.0000
  18 H            2.6910    -0.4623     0.3036 H            1    LIG   0.0000
  19 H            2.8277     0.3957     3.0344 H            1    LIG   0.0000
  20 H            4.2302     1.7245     4.4437 H            1    LIG   0.0000
  21 H            4.2223     4.1065     4.2343 H            1    LIG   0.0000
  22 H            2.8138     5.1597     2.6139 H            1    LIG   0.0000
  23 H           -0.5889     3.0114     1.4564 H            1    LIG   0.0000
  24 H           -1.9748     4.0935    -0.1857 H            1    LIG   0.0000
  25 H            2.5955     5.2458     0.0321 H            1    LIG   0.0000
@<TRIPOS>BOND
   1        1        2 1
   2        2        3 2
   3        2        4 1
   4        4        5 ar
   5        5        6 ar
   6        6        7 ar
   7        7        8 ar
   8        8        9 ar
   9        9        4 ar
  10        9       10 1
  11       10       11 ar
  12       11       12 ar
  13       12       13 ar
  14       13       14 ar
  15       14       15 ar
  16       15       10 ar
  17        1       16 1
  18        1       17 1
  19        1       18 1
  20        5       19 1
  21        6       20 1
  22        7       21 1
  23        8       22 1
  24       11       23 1
  25       12       24 1
  26       15       25 1

@<TRIPOS>MOLECULE

  25   26
SMALL
USER_CHARGES
@<TRIPOS>ATOM
   1 C1           1.8066    -0.6008     0.7492 C.3          1    LIG   0.0000
   2 S2           1.0000     1.0000     1.0000 S.o          1    LIG   0.0000
   3 O3           0.7936     1.6640    -0.3178 O.2          1    LIG   0.0000
   4 C4           2.0047     2.0047     2.0047 C.ar         1    LIG   0.0000
   5 C5           2.8247     1.3918     2.9467 C.ar         1    LIG   0.0000
   6 C6           3.6406     2.1650     3.7667 C.ar         1    LIG   0.0000
   7 C7           3.6362     3.5508     3.6446 C.ar         1    LIG   0.0000
   8 C8           2.8164     4.1636     2.7022 C.ar         1    LIG   0.0000
   9 C9           2.0003     3.3907     1.8829 C.ar         1    LIG   0.0000
  10 C10          1.1445     4.0300     0.9007 C.ar         1    LIG   0.0000
  11 C11          1.4305     3.9001    -0.4540 C.ar         1    LIG   0.0000
  12 C12          0.5952     4.5218    -1.3764 C.ar         1    LIG   0.0000
  13 N13         -0.4595     5.2258    -0.9373 N.ar         1    LIG   0.0000
  14 N14         -0.7277     5.3482     0.3221 N.ar         1    LIG   0.0000
  15 C15          0.0323     4.7793     1.2716 C.ar         1    LIG   0.0000
  16 H            1.9451    -1.0465     1.6337 H            1    LIG   0.0000
  17 H            1.2292    -1.1782     0.1719 H            1    LIG   0.0000
  18 H            2.6910    -0.4623     0.3036 H            1    LIG   0.0000
  19 H            2.8277     0.3957     3.0344 H            1    LIG   0.0000
  20 H            4.2302     1.7245     4.4437 H            1    LIG   0.0000
  21 H            4.2223     4.1065     4.2343 H            1    LIG   0.0000
  22 H            2.8138     5.1597     2.6139 H            1    LIG   0.0000
  23 H            2.2215     3.3700    -0.7592 H            1    LIG   0.0000
  24 H            0.7787     4.4449    -2.3564 H            1    LIG   0.0000
  25 H           -0.1992     4.8932     2.2378 H            1    LIG   0.0000
@<TRIPOS>BOND
   1        1        2 1
   2        2        3 2
   3        2        4 1
   4        4        5 ar
   5        5        6 ar
   6        6        7 ar
   7        7        8 ar
   8        8        9 ar
   9        9        4 ar
  10        9       10 1
  11       10       11 ar
  12       11       12 ar
  13       12       13 ar
  14       13       14 ar
  15       14       15 ar
  16       15       10 ar
  17        1       16 1
  18        1       17 1
  19        1       18 1
  20        5       19 1
  21        6       20 1
  22        7       21 1
  23        8       22 1
  24       11       23 1
  25       12       24 1
  26       15       25 1

@<TRIPOS>MOLECULE

  25   26
SMALL
USER_CHARGES
@<TRIPOS>ATOM
   1 C1           1.8066    -0.6008     0.7492 C.3          1    LIG   0.0000
   2 S2           1.0000     1.0000     1.0000 S.o          1    LIG   0.0000
   3 O3           0.7936     1.6640    -0.3178 O.2          1    LIG   0.0000
   4 C4           2.0047     2.0047     2.0047 C.ar         1    LIG   0.0000
   5 C5           1.3918     2.9467     2.8247 C.ar         1    LIG   0.0000
   6 C6           2.1650     3.7667     3.6406 C.ar         1    LIG   0.0000
   7 C7           3.5508     3.6446     3.6362 C.ar         1    LIG   0.0000
   8 C8           4.1636     2.7022     2.8164 C.ar         1    LIG   0.0000
   9 C9           3.3907     1.8829     2.0003 C.ar         1    LIG   0.0000
  10 C10          4.0300     0.9007     1.1445 C.ar         1    LIG   0.0000
  11 C11          4.0291     1.0807    -0.2344 C.ar         1    LIG   0.0000
  12 C12          4.6487     0.1258    -1.0339 C.ar         1    LIG   0.0000
  13 N13          5.2288    -0.9377    -0.4567 N.ar         1    LIG   0.0000
  14 N14          5.2310    -1.1076     0.8255 N.ar         1    LIG   0.0000
  15 C15          4.6523    -0.2311     1.6620 C.ar         1    LIG   0.0000
  16 H            1.9451    -1.0465     1.6337 H            1    LIG   0.0000
  17 H            1.2292    -1.1782     0.1719 H            1    LIG   0.0000
  18 H            2.6910    -0.4623     0.3036 H            1    LIG   0.0000
  19 H            0.3957     3.0344     2.8277 H            1    LIG   0.0000
  20 H            1.7245     4.4437     4.2302 H            1    LIG   0.0000
  21 H            4.1065     4.2343     4.2223 H            1    LIG   0.0000
  22 H            5.1597     2.6139     2.8138 H            1    LIG   0.0000
  23 H            3.5914     1.8814    -0.6435 H            1    LIG   0.0000
  24 H            4.6617     0.2308    -2.0283 H            1    LIG   0.0000
  25 H            4.6685    -0.3904     2.6491 H            1    LIG   0.0000
@<TRIPOS>BOND
   1        1        2 1
   2        2        3 2
   3        2        4 1
   4        4        5 ar
   5        5        6 ar
   6        6        7 ar
   7        7        8 ar
   8        8        9 ar
   9        9        4 ar
  10        9       10 1
  11       10       11 ar
  12       11       12 ar
  13       12       13 ar
  14       13       14 ar
  15       14       15 ar
  16       15       10 ar
  17        1       16 1
  18        1       17 1
  19        1       18 1
  20        5       19 1
  21        6       20 1
  22        7       21 1
  23        8       22 1
  24       11       23 1
  25       12       24 1
  26       15       25 1

@<TRIPOS>MOLECULE

  25   26
SMALL
USER_CHARGES
@<TRIPOS>ATOM
   1 C1           1.8066    -0.6008     0.7492 C.3          1    LIG   0.0000
   2 S2           1.0000     1.0000     1.0000 S.o          1    LIG   0.0000
   3 O3           0.7936     1.6640    -0.3178 O.2          1    LIG   0.0000
   4 C4           2.0047     2.0047     2.0047 C.ar         1    LIG   0.0000
   5 C5           2.9467     2.8247     1.3918 C.ar         1    LIG   0.0000
   6 C6           3.7667     3.6406     2.1650 C.ar         1    LIG   0.0000
   7 C7           3.6446     3.6362     3.5508 C.ar         1    LIG   0.0000
   8 C8           2.7022     2.8164     4.1636 C.ar         1    LIG   0.0000
   9 C9           1.8829     2.0003     3.3907 C.ar         1    LIG   0.0000
  10 C10          0.9007     1.1445     4.0300 C.ar         1    LIG   0.0000
  11 C11         -0.2147     1.7083     4.6397 C.ar         1    LIG   0.0000
  12 C12         -1.1424     0.8673     5.2456 C.ar         1    LIG   0.0000
  13 N13         -0.9384    -0.4588     5.2250 N.ar         1    LIG   0.0000
  14 N14          0.0982    -0.9859     4.6587 N.ar         1    LIG   0.0000
  15 C15          1.0376    -0.2399     4.0553 C.ar         1    LIG   0.0000
  16 H            1.9451    -1.0465     1.6337 H            1    LIG   0.0000
  17 H            1.2292    -1.1782     0.1719 H            1    LIG   0.0000
  18 H            2.6910    -0.4623     0.3036 H            1    LIG   0.0000
  19 H            3.0344     2.8277     0.3957 H            1    LIG   0.0000
  20 H            4.4437     4.2302     1.7245 H            1    LIG   0.0000
  21 H            4.2343     4.2223     4.1065 H            1    LIG   0.0000
  22 H            2.6139     2.8138     5.1597 H            1    LIG   0.0000
  23 H           -0.3473     2.6995     4.6426 H            1    LIG   0.0000
  24 H           -1.9528     1.2470     5.6917 H            1    LIG   0.0000
  25 H            1.8293    -0.6760     3.6274 H            1    LIG   0.0000
@<TRIPOS>BOND
   1        1        2 1
   2        2        3 2
   3        2        4 1
   4        4        5 ar
   5        5        6 ar
   6        6        7 ar
   7        7        8 ar
   8        8        9 ar
   9        9        4 ar
  10        9       10 1
  11       10       11 ar
  12       11       12 ar
  13       12       13 ar
  14       13       14 ar
  15       14       15 ar
  16       15       10 ar
  17        1       16 1
  18        1       17 1
  19        1       18 1
  20        5       19 1
  21        6       20 1
  22        7       21 1
  23        8       22 1
  24       11       23 1
  25       12       24 1
  26       15       25 1

@<TRIPOS>MOLECULE

  25   26
SMALL
USER_CHARGES
@<TRIPOS>ATOM
   1 C1           1.8066    -0.6008     0.7492 C.3          1    LIG   0.0000
   2 S2           1.0000     1.0000     1.0000 S.o          1    LIG   0.0000
   3 O3           0.7936     1.6640    -0.3178 O.2          1    LIG   0.0000
   4 C4           2.0047     2.0047     2.0047 C.ar         1    LIG   0.0000
   5 C5           2.9467     2.8247     1.3918 C.ar         1    LIG   0.0000
   6 C6           3.7667     3.6406     2.1650 C.ar         1    LIG   0.0000
   7 C7           3.6446     3.6362     3.5508 C.ar         1    LIG   0.0000
   8 C8           2.7022     2.8164     4.1636 C.ar         1    LIG   0.0000
   9 C9           1.8829     2.0003     3.3907 C.ar         1    LIG   0.0000
  10 C10          0.9007     1.1445     4.0300 C.ar         1    LIG   0.0000
  11 C11          1.2834     0.3195     5.0819 C.ar         1    LIG   0.0000
  12 C12          0.3239    -0.4916     5.6790 C.ar         1    LIG   0.0000
  13 N13         -0.9393    -0.4560     5.2274 N.ar         1    LIG   0.0000
  14 N14         -1.2979     0.3103     4.2492 N.ar         1    LIG   0.0000
  15 C15         -0.4292     1.1195     3.6217 C.ar         1    LIG   0.0000
  16 H            1.9451    -1.0465     1.6337 H            1    LIG   0.0000
  17 H            1.2292    -1.1782     0.1719 H            1    LIG   0.0000
  18 H            2.6910    -0.4623     0.3036 H            1    LIG   0.0000
  19 H            3.0344     2.8277     0.3957 H            1    LIG   0.0000
  20 H            4.4437     4.2302     1.7245 H            1    LIG   0.0000
  21 H            4.2343     4.2223     4.1065 H            1    LIG   0.0000
  22 H            2.6139     2.8138     5.1597 H            1    LIG   0.0000
  23 H            2.2304     0.3094     5.4031 H            1    LIG   0.0000
  24 H            0.5728    -1.0948     6.4368 H            1    LIG   0.0000
  25 H           -0.7356     1.6995     2.8669 H            1    LIG   0.0000
@<TRIPOS>BOND
   1        1        2 1
   2        2        3 2
   3        2        4 1
   4        4        5 ar
   5        5        6 ar
   6        6        7 ar
   7        7        8 ar
   8        8        9 ar
   9        9        4 ar
  10        9       10 1
  11       10       11 ar
  12       11       12 ar
  13       12       13 ar
  14       13       14 ar
  15       14       15 ar
  16       15       10 ar
  17        1       16 1
  18        1       17 1
  19        1       18 1
  20        5       19 1
  21        6       20 1
  22        7       21 1
  23        8       22 1
  24       11       23 1
  25       12       24 1
  26       15       25 1

@<TRIPOS>MOLECULE

  25   26
SMALL
USER_CHARGES
@<TRIPOS>ATOM
   1 C1           1.8066    -0.6008     0.7492 C.3          1    LIG   0.0000
   2 S2           1.0000     1.0000     1.0000 S.o          1    LIG   0.0000
   3 O3           0.7936     1.6640    -0.3178 O.2          1    LIG   0.0000
   4 C4           2.0047     2.0047     2.0047 C.ar         1    LIG   0.0000
   5 C5           2.9467     2.8247     1.3918 C.ar         1    LIG   0.0000
   6 C6           3.7667     3.6406     2.1650 C.ar         1    LIG   0.0000
   7 C7           3.6446     3.6362     3.5508 C.ar         1    LIG   0.0000
   8 C8           2.7022     2.8164     4.1636 C.ar         1    LIG   0.0000
   9 C9           1.8829     2.0003     3.3907 C.ar         1    LIG   0.0000
  10 C10          0.9007     1.1445     4.0300 C.ar         1    LIG   0.0000
  11 C11          1.0807    -0.2344     4.0291 C.ar         1    LIG   0.0000
  12 C12          0.1258    -1.0339     4.6487 C.ar         1    LIG   0.0000
  13 N13         -0.9377    -0.4567     5.2288 N.ar         1    LIG   0.0000
  14 N14         -1.1076     0.8255     5.2310 N.ar         1    LIG   0.0000
  15 C15         -0.2311     1.6620     4.6523 C.ar         1    LIG   0.0000
  16 H            1.9451    -1.0465     1.6337 H            1    LIG   0.0000
  17 H            1.2292    -1.1782     0.1719 H            1    LIG   0.0000
  18 H            2.6910    -0.4623     0.3036 H            1    LIG   0.0000
  19 H            3.0344     2.8277     0.3957 H            1    LIG   0.0000
  20 H            4.4437     4.2302     1.7245 H            1    LIG   0.0000
  21 H            4.2343     4.2223     4.1065 H            1    LIG   0.0000
  22 H            2.6139     2.8138     5.1597 H            1    LIG   0.0000
  23 H            1.8814    -0.6435     3.5914 H            1    LIG   0.0000
  24 H            0.2308    -2.0283     4.6617 H            1    LIG   0.0000
  25 H           -0.3904     2.6491     4.6685 H            1    LIG   0.0000
@<TRIPOS>BOND
   1        1        2 1
   2        2        3 2
   3        2        4 1
   4        4        5 ar
   5        5        6 ar
   6        6        7 ar
   7        7        8 ar
   8        8        9 ar
   9        9        4 ar
  10        9       10 1
  11       10       11 ar
  12       11       12 ar
  13       12       13 ar
  14       13       14 ar
  15       14       15 ar
  16       15       10 ar
  17        1       16 1
  18        1       17 1
  19        1       18 1
  20        5       19 1
  21        6       20 1
  22        7       21 1
  23        8       22 1
  24       11       23 1
  25       12       24 1
  26       15       25 1

@<TRIPOS>MOLECULE

  25   26
SMALL
USER_CHARGES
@<TRIPOS>ATOM
   1 C1           1.8066    -0.6008     0.7492 C.3          1    LIG   0.0000
   2 S2           1.0000     1.0000     1.0000 S.o          1    LIG   0.0000
   3 O3           0.7936     1.6640    -0.3178 O.2          1    LIG   0.0000
   4 C4           2.0047     2.0047     2.0047 C.ar         1    LIG   0.0000
   5 C5           2.9467     2.8247     1.3918 C.ar         1    LIG   0.0000
   6 C6           3.7667     3.6406     2.1650 C.ar         1    LIG   0.0000
   7 C7           3.6446     3.6362     3.5508 C.ar         1    LIG   0.0000
   8 C8           2.7022     2.8164     4.1636 C.ar         1    LIG   0.0000
   9 C9           1.8829     2.0003     3.3907 C.ar         1    LIG   0.0000
  10 C10          0.9007     1.1445     4.0300 C.ar         1    LIG   0.0000
  11 C11         -0.4174     1.1545     3.5869 C.ar         1    LIG   0.0000
  12 C12         -1.3404     0.3250     4.2153 C.ar         1    LIG   0.0000
  13 N13         -0.9369    -0.4596     5.2264 N.ar         1    LIG   0.0000
  14 N14          0.2884    -0.4707     5.6405 N.ar         1    LIG   0.0000
  15 C15          1.2357     0.3026     5.0859 C.ar         1    LIG   0.0000
  16 H            1.9451    -1.0465     1.6337 H            1    LIG   0.0000
  17 H            1.2292    -1.1782     0.1719 H            1    LIG   0.0000
  18 H            2.6910    -0.4623     0.3036 H            1    LIG   0.0000
  19 H            3.0344     2.8277     0.3957 H            1    LIG   0.0000
  20 H            4.4437     4.2302     1.7245 H            1    LIG   0.0000
  21 H            4.2343     4.2223     4.1065 H            1    LIG   0.0000
  22 H            2.6139     2.8138     5.1597 H            1    LIG   0.0000
  23 H           -0.6963     1.7466     2.8309 H            1    LIG   0.0000
  24 H           -2.2948     0.3135     3.9167 H            1    LIG   0.0000
  25 H            2.1746     0.2736     5.4290 H            1    LIG   0.0000
@<TRIPOS>BOND
   1        1        2 1
   2        2        3 2
   3        2        4 1
   4        4        5 ar
   5        5        6 ar
   6        6        7 ar
   7        7        8 ar
   8        8        9 ar
   9        9        4 ar
  10        9       10 1
  11       10       11 ar
  12       11       12 ar
  13       12       13 ar
  14       13       14 ar
  15       14       15 ar
  16       15       10 ar
  17        1       16 1
  18        1       17 1
  19        1       18 1
  20        5       19 1
  21        6       20 1
  22        7       21 1
  23        8       22 1
  24       11       23 1
  25       12       24 1
  26       15       25 1

@<TRIPOS>MOLECULE

  25   26
SMALL
USER_CHARGES
@<TRIPOS>ATOM
   1 C1           1.8066    -0.6008     0.7492 C.3          1    LIG   0.0000
   2 S2           1.0000     1.0000     1.0000 S.o          1    LIG   0.0000
   3 O3           0.7936     1.6640    -0.3178 O.2          1    LIG   0.0000
   4 C4           2.0047     2.0047     2.0047 C.ar         1    LIG   0.0000
   5 C5           1.9508     3.3836     1.8288 C.ar         1    LIG   0.0000
   6 C6           2.7409     4.2165     2.6148 C.ar         1    LIG   0.0000
   7 C7           3.5849     3.6703     3.5765 C.ar         1    LIG   0.0000
   8 C8           3.6384     2.2912     3.7526 C.ar         1    LIG   0.0000
   9 C9           2.8489     1.4586     2.9664 C.ar         1    LIG   0.0000
  10 C10          2.9056     0.0201     3.1494 C.ar         1    LIG   0.0000
  11 C11          4.0447    -0.6806     2.7681 C.ar         1    LIG   0.0000
  12 C12          4.0754    -2.0588     2.9539 C.ar         1    LIG   0.0000
  13 N13          3.0115    -2.6726     3.4943 N.ar         1    LIG   0.0000
  14 N14          1.9509    -2.0233     3.8497 N.ar         1    LIG   0.0000
  15 C15          1.8455    -0.6930     3.7004 C.ar         1    LIG   0.0000
  16 H            1.9451    -1.0465     1.6337 H            1    LIG   0.0000
  17 H            1.2292    -1.1782     0.1719 H            1    LIG   0.0000
  18 H            2.6910    -0.4623     0.3036 H            1    LIG   0.0000
  19 H            1.3442     3.7762     1.1374 H            1    LIG   0.0000
  20 H            2.7021     5.2078     2.4885 H            1    LIG   0.0000
  21 H            4.1531     4.2689     4.1411 H            1    LIG   0.0000
  22 H            4.2445     1.8986     4.4444 H            1    LIG   0.0000
  23 H            4.8267    -0.2028     2.3679 H            1    LIG   0.0000
  24 H            4.8820    -2.5866     2.6876 H            1    LIG   0.0000
  25 H            1.0118    -0.2186     3.9830 H            1    LIG   0.0000
@<TRIPOS>BOND
   1        1        2 1
   2        2        3 2
   3        2        4 1
   4        4        5 ar
   5        5        6 ar
   6        6        7 ar
   7        7        8 ar
   8        8        9 ar
   9        9        4 ar
  10        9       10 1
  11       10       11 ar
  12       11       12 ar
  13       12       13 ar
  14       13       14 ar
  15       14       15 ar
  16       15       10 ar
  17        1       16 1
  18        1       17 1
  19        1       18 1
  20        5       19 1
  21        6       20 1
  22        7       21 1
  23        8       22 1
  24       11       23 1
  25       12       24 1
  26       15       25 1

@<TRIPOS>MOLECULE

  25   26
SMALL
USER_CHARGES
@<TRIPOS>ATOM
   1 C1           1.8066    -0.6008     0.7492 C.3          1    LIG   0.0000
   2 S2           1.0000     1.0000     1.0000 S.o          1    LIG   0.0000
   3 O3           0.7936     1.6640    -0.3178 O.2          1    LIG   0.0000
   4 C4           2.0047     2.0047     2.0047 C.ar         1    LIG   0.0000
   5 C5           1.9508     3.3836     1.8288 C.ar         1    LIG   0.0000
   6 C6           2.7409     4.2165     2.6148 C.ar         1    LIG   0.0000
   7 C7           3.5849     3.6703     3.5765 C.ar         1    LIG   0.0000
   8 C8           3.6384     2.2912     3.7526 C.ar         1    LIG   0.0000
   9 C9           2.8489     1.4586     2.9664 C.ar         1    LIG   0.0000
  10 C10          2.9056     0.0201     3.1494 C.ar         1    LIG   0.0000
  11 C11          1.8206    -0.6490     3.7051 C.ar         1    LIG   0.0000
  12 C12          1.8986    -2.0280     3.8701 C.ar         1    LIG   0.0000
  13 N13          3.0122    -2.6731     3.4900 N.ar         1    LIG   0.0000
  14 N14          4.0227    -2.0532     2.9729 N.ar         1    LIG   0.0000
  15 C15          4.0232    -0.7238     2.7838 C.ar         1    LIG   0.0000
  16 H            1.9451    -1.0465     1.6337 H            1    LIG   0.0000
  17 H            1.2292    -1.1782     0.1719 H            1    LIG   0.0000
  18 H            2.6910    -0.4623     0.3036 H            1    LIG   0.0000
  19 H            1.3442     3.7762     1.1374 H            1    LIG   0.0000
  20 H            2.7021     5.2078     2.4885 H            1    LIG   0.0000
  21 H            4.1531     4.2689     4.1411 H            1    LIG   0.0000
  22 H            4.2445     1.8986     4.4444 H            1    LIG   0.0000
  23 H            1.0000    -0.1484     3.9807 H            1    LIG   0.0000
  24 H            1.1328    -2.5334     4.2679 H            1    LIG   0.0000
  25 H            4.8204    -0.2720     2.3834 H            1    LIG   0.0000
@<TRIPOS>BOND
   1        1        2 1
   2        2        3 2
   3        2        4 1
   4        4        5 ar
   5        5        6 ar
   6        6        7 ar
   7        7        8 ar
   8        8        9 ar
   9        9        4 ar
  10        9       10 1
  11       10       11 ar
  12       11       12 ar
  13       12       13 ar
  14       13       14 ar
  15       14       15 ar
  16       15       10 ar
  17        1       16 1
  18        1       17 1
  19        1       18 1
  20        5       19 1
  21        6       20 1
  22        7       21 1
  23        8       22 1
  24       11       23 1
  25       12       24 1
  26       15       25 1

@<TRIPOS>MOLECULE

  25   26
SMALL
USER_CHARGES
@<TRIPOS>ATOM
   1 C1           1.8066    -0.6008     0.7492 C.3          1    LIG   0.0000
   2 S2           1.0000     1.0000     1.0000 S.o          1    LIG   0.0000
   3 O3           0.7936     1.6640    -0.3178 O.2          1    LIG   0.0000
   4 C4           2.0047     2.0047     2.0047 C.ar         1    LIG   0.0000
   5 C5           3.3836     1.8288     1.9508 C.ar         1    LIG   0.0000
   6 C6           4.2165     2.6148     2.7409 C.ar         1    LIG   0.0000
   7 C7           3.6703     3.5765     3.5849 C.ar         1    LIG   0.0000
   8 C8           2.2912     3.7526     3.6384 C.ar         1    LIG   0.0000
   9 C9           1.4586     2.9664     2.8489 C.ar         1    LIG   0.0000
  10 C10          0.0201     3.1494     2.9056 C.ar         1    LIG   0.0000
  11 C11         -0.5749     3.5858     4.0843 C.ar         1    LIG   0.0000
  12 C12         -1.9554     3.7542     4.1139 C.ar         1    LIG   0.0000
  13 N13         -2.6728     3.4935     3.0102 N.ar         1    LIG   0.0000
  14 N14         -2.1218     3.0875     1.9127 N.ar         1    LIG   0.0000
  15 C15         -0.7964     2.8998     1.8070 C.ar         1    LIG   0.0000
  16 H            1.9451    -1.0465     1.6337 H            1    LIG   0.0000
  17 H            1.2292    -1.1782     0.1719 H            1    LIG   0.0000
  18 H            2.6910    -0.4623     0.3036 H            1    LIG   0.0000
  19 H            3.7762     1.1374     1.3442 H            1    LIG   0.0000
  20 H            5.2078     2.4885     2.7021 H            1    LIG   0.0000
  21 H            4.2689     4.1411     4.1531 H            1    LIG   0.0000
  22 H            1.8986     4.4444     4.2445 H            1    LIG   0.0000
  23 H           -0.0210     3.7750     4.8951 H            1    LIG   0.0000
  24 H           -2.4086     4.0662     4.9490 H            1    LIG   0.0000
  25 H           -0.3994     2.5832     0.9456 H            1    LIG   0.0000
@<TRIPOS>BOND
   1        1        2 1
   2        2        3 2
   3        2        4 1
   4        4        5 ar
   5        5        6 ar
   6        6        7 ar
   7        7        8 ar
   8        8        9 ar
   9        9        4 ar
  10        9       10 1
  11       10       11 ar
  12       11       12 ar
  13       12       13 ar
  14       13       14 ar
  15       14       15 ar
  16       15       10 ar
  17        1       16 1
  18        1       17 1
  19        1       18 1
  20        5       19 1
  21        6       20 1
  22        7       21 1
  23        8       22 1
  24       11       23 1
  25       12       24 1
  26       15       25 1

