@<TRIPOS>MOLECULE
*****
 25 26 0 0 0
SMALL
USER_CHARGES

@<TRIPOS>ATOM
      1 C1          1.8066   -0.6008    0.7492 C.3     1  LIG1        0.0000
      2 S2          1.0000    1.0000    1.0000 S.O     1  LIG1        0.0000
      3 O3          0.7936    1.6640   -0.3178 O.2     1  LIG1        0.0000
      4 C4          2.0047    2.0047    2.0047 C.3     1  LIG1        0.0000
      5 C5          3.3836    1.8288    1.9508 C.3     1  LIG1        0.0000
      6 C6          4.2165    2.6148    2.7409 C.3     1  LIG1        0.0000
      7 C7          3.6703    3.5765    3.5849 C.3     1  LIG1        0.0000
      8 C8          2.2912    3.7526    3.6384 C.3     1  LIG1        0.0000
      9 C9          1.4586    2.9664    2.8489 C.3     1  LIG1        0.0000
     10 C10         0.0201    3.1494    2.9056 C.3     1  LIG1        0.0000
     11 C11        -0.5749    3.5858    4.0843 C.3     1  LIG1        0.0000
     12 C12        -1.9554    3.7542    4.1139 C.3     1  LIG1        0.0000
     13 N13        -2.6728    3.4935    3.0102 N.pl3   1  LIG1        0.0000
     14 N14        -2.1218    3.0875    1.9127 N.pl3   1  LIG1        0.0000
     15 C15        -0.7964    2.8998    1.8070 C.3     1  LIG1        0.0000
     16 H           1.9451   -1.0465    1.6337 H       1  LIG1        0.0000
     17 H           1.2292   -1.1782    0.1719 H       1  LIG1        0.0000
     18 H           2.6910   -0.4623    0.3036 H       1  LIG1        0.0000
     19 H           3.7762    1.1374    1.3442 H       1  LIG1        0.0000
     20 H           5.2078    2.4885    2.7021 H       1  LIG1        0.0000
     21 H           4.2689    4.1411    4.1531 H       1  LIG1        0.0000
     22 H           1.8986    4.4444    4.2445 H       1  LIG1        0.0000
     23 H          -0.0210    3.7750    4.8951 H       1  LIG1        0.0000
     24 H          -2.4086    4.0662    4.9490 H       1  LIG1        0.0000
     25 H          -0.3994    2.5832    0.9456 H       1  LIG1        0.0000
@<TRIPOS>BOND
     1     1     2    1
     2     2     3    2
     3     2     4    1
     4     4     5   ar
     5     5     6   ar
     6     6     7   ar
     7     7     8   ar
     8     8     9   ar
     9     9     4   ar
    10     9    10    1
    11    10    11   ar
    12    11    12   ar
    13    12    13   ar
    14    13    14   ar
    15    14    15   ar
    16    15    10   ar
    17     1    16    1
    18     1    17    1
    19     1    18    1
    20     5    19    1
    21     6    20    1
    22     7    21    1
    23     8    22    1
    24    11    23    1
    25    12    24    1
    26    15    25    1
