@<TRIPOS>MOLECULE
*****
 25 26 0 0 0
SMALL
USER_CHARGES

@<TRIPOS>ATOM
      1 C1          1.8066   -0.6008    0.7492 C.3     1  LIG1        0.0000
      2 S2          1.0000    1.0000    1.0000 S.O     1  LIG1        0.0000
      3 O3          0.7936    1.6640   -0.3178 O.2     1  LIG1        0.0000
      4 C4          2.0047    2.0047    2.0047 C.3     1  LIG1        0.0000
      5 C5          1.9508    3.3836    1.8288 C.3     1  LIG1        0.0000
      6 C6          2.7409    4.2165    2.6148 C.3     1  LIG1        0.0000
      7 C7          3.5849    3.6703    3.5765 C.3     1  LIG1        0.0000
      8 C8          3.6384    2.2912    3.7526 C.3     1  LIG1        0.0000
      9 C9          2.8489    1.4586    2.9664 C.3     1  LIG1        0.0000
     10 C10         2.9056    0.0201    3.1494 C.3     1  LIG1        0.0000
     11 C11         1.8206   -0.6490    3.7051 C.3     1  LIG1        0.0000
     12 C12         1.8986   -2.0280    3.8701 C.3     1  LIG1        0.0000
     13 N13         3.0122   -2.6731    3.4900 N.pl3   1  LIG1        0.0000
     14 N14         4.0227   -2.0532    2.9729 N.pl3   1  LIG1        0.0000
     15 C15         4.0232   -0.7238    2.7838 C.3     1  LIG1        0.0000
     16 H           1.9451   -1.0465    1.6337 H       1  LIG1        0.0000
     17 H           1.2292   -1.1782    0.1719 H       1  LIG1        0.0000
     18 H           2.6910   -0.4623    0.3036 H       1  LIG1        0.0000
     19 H           1.3442    3.7762    1.1374 H       1  LIG1        0.0000
     20 H           2.7021    5.2078    2.4885 H       1  LIG1        0.0000
     21 H           4.1531    4.2689    4.1411 H       1  LIG1        0.0000
     22 H           4.2445    1.8986    4.4444 H       1  LIG1        0.0000
     23 H           1.0000   -0.1484    3.9807 H       1  LIG1        0.0000
     24 H           1.1328   -2.5334    4.2679 H       1  LIG1        0.0000
     25 H           4.8204   -0.2720    2.3834 H       1  LIG1        0.0000
@<TRIPOS>BOND
     1     1     2    1
     2     2     3    2
     3     2     4    1
     4     4     5   ar
     5     5     6   ar
     6     6     7   ar
     7     7     8   ar
     8     8     9   ar
     9     9     4   ar
    10     9    10    1
    11    10    11   ar
    12    11    12   ar
    13    12    13   ar
    14    13    14   ar
    15    14    15   ar
    16    15    10   ar
    17     1    16    1
    18     1    17    1
    19     1    18    1
    20     5    19    1
    21     6    20    1
    22     7    21    1
    23     8    22    1
    24    11    23    1
    25    12    24    1
    26    15    25    1
