@<TRIPOS>MOLECULE
*****
 25 26 0 0 0
SMALL
USER_CHARGES

@<TRIPOS>ATOM
      1 C1          1.8066   -0.6008    0.7492 C.3     1  LIG1        0.0000
      2 S2          1.0000    1.0000    1.0000 S.O     1  LIG1        0.0000
      3 O3          0.7936    1.6640   -0.3178 O.2     1  LIG1        0.0000
      4 C4          2.0047    2.0047    2.0047 C.3     1  LIG1        0.0000
      5 C5          1.8288    1.9508    3.3836 C.3     1  LIG1        0.0000
      6 C6          2.6148    2.7409    4.2165 C.3     1  LIG1        0.0000
      7 C7          3.5765    3.5849    3.6703 C.3     1  LIG1        0.0000
      8 C8          3.7526    3.6384    2.2912 C.3     1  LIG1        0.0000
      9 C9          2.9664    2.8489    1.4586 C.3     1  LIG1        0.0000
     10 C10         3.1494    2.9056    0.0201 C.3     1  LIG1        0.0000
     11 C11         2.7681    4.0447   -0.6806 C.3     1  LIG1        0.0000
     12 C12         2.9539    4.0754   -2.0588 C.3     1  LIG1        0.0000
     13 N13         3.4943    3.0115   -2.6726 N.pl3   1  LIG1        0.0000
     14 N14         3.8497    1.9509   -2.0233 N.pl3   1  LIG1        0.0000
     15 C15         3.7004    1.8455   -0.6930 C.3     1  LIG1        0.0000
     16 H           1.9451   -1.0465    1.6337 H       1  LIG1        0.0000
     17 H           1.2292   -1.1782    0.1719 H       1  LIG1        0.0000
     18 H           2.6910   -0.4623    0.3036 H       1  LIG1        0.0000
     19 H           1.1374    1.3442    3.7762 H       1  LIG1        0.0000
     20 H           2.4885    2.7021    5.2078 H       1  LIG1        0.0000
     21 H           4.1411    4.1531    4.2689 H       1  LIG1        0.0000
     22 H           4.4444    4.2445    1.8986 H       1  LIG1        0.0000
     23 H           2.3679    4.8267   -0.2028 H       1  LIG1        0.0000
     24 H           2.6876    4.8820   -2.5866 H       1  LIG1        0.0000
     25 H           3.9830    1.0118   -0.2186 H       1  LIG1        0.0000
@<TRIPOS>BOND
     1     1     2    1
     2     2     3    2
     3     2     4    1
     4     4     5   ar
     5     5     6   ar
     6     6     7   ar
     7     7     8   ar
     8     8     9   ar
     9     9     4   ar
    10     9    10    1
    11    10    11   ar
    12    11    12   ar
    13    12    13   ar
    14    13    14   ar
    15    14    15   ar
    16    15    10   ar
    17     1    16    1
    18     1    17    1
    19     1    18    1
    20     5    19    1
    21     6    20    1
    22     7    21    1
    23     8    22    1
    24    11    23    1
    25    12    24    1
    26    15    25    1
