@<TRIPOS>MOLECULE
*****
 25 26 0 0 0
SMALL
USER_CHARGES

@<TRIPOS>ATOM
      1 C1          1.8066   -0.6008    0.7492 C.3     1  LIG1        0.0000
      2 S2          1.0000    1.0000    1.0000 S.O     1  LIG1        0.0000
      3 O3          0.7936    1.6640   -0.3178 O.2     1  LIG1        0.0000
      4 C4          2.0047    2.0047    2.0047 C.3     1  LIG1        0.0000
      5 C5          2.9467    2.8247    1.3918 C.3     1  LIG1        0.0000
      6 C6          3.7667    3.6406    2.1650 C.3     1  LIG1        0.0000
      7 C7          3.6446    3.6362    3.5508 C.3     1  LIG1        0.0000
      8 C8          2.7022    2.8164    4.1636 C.3     1  LIG1        0.0000
      9 C9          1.8829    2.0003    3.3907 C.3     1  LIG1        0.0000
     10 C10         0.9007    1.1445    4.0300 C.3     1  LIG1        0.0000
     11 C11         1.0807   -0.2344    4.0291 C.3     1  LIG1        0.0000
     12 C12         0.1258   -1.0339    4.6487 C.3     1  LIG1        0.0000
     13 N13        -0.9377   -0.4567    5.2288 N.pl3   1  LIG1        0.0000
     14 N14        -1.1076    0.8255    5.2310 N.pl3   1  LIG1        0.0000
     15 C15        -0.2311    1.6620    4.6523 C.3     1  LIG1        0.0000
     16 H           1.9451   -1.0465    1.6337 H       1  LIG1        0.0000
     17 H           1.2292   -1.1782    0.1719 H       1  LIG1        0.0000
     18 H           2.6910   -0.4623    0.3036 H       1  LIG1        0.0000
     19 H           3.0344    2.8277    0.3957 H       1  LIG1        0.0000
     20 H           4.4437    4.2302    1.7245 H       1  LIG1        0.0000
     21 H           4.2343    4.2223    4.1065 H       1  LIG1        0.0000
     22 H           2.6139    2.8138    5.1597 H       1  LIG1        0.0000
     23 H           1.8814   -0.6435    3.5914 H       1  LIG1        0.0000
     24 H           0.2308   -2.0283    4.6617 H       1  LIG1        0.0000
     25 H          -0.3904    2.6491    4.6685 H       1  LIG1        0.0000
@<TRIPOS>BOND
     1     1     2    1
     2     2     3    2
     3     2     4    1
     4     4     5   ar
     5     5     6   ar
     6     6     7   ar
     7     7     8   ar
     8     8     9   ar
     9     9     4   ar
    10     9    10    1
    11    10    11   ar
    12    11    12   ar
    13    12    13   ar
    14    13    14   ar
    15    14    15   ar
    16    15    10   ar
    17     1    16    1
    18     1    17    1
    19     1    18    1
    20     5    19    1
    21     6    20    1
    22     7    21    1
    23     8    22    1
    24    11    23    1
    25    12    24    1
    26    15    25    1
