@<TRIPOS>MOLECULE

  71   74
SMALL
USER_CHARGES
@<TRIPOS>ATOM
   1 C1          -0.6984    -2.3377     0.0390 C.3          1    LIG   0.0000
   2 N2          -0.9412    -0.8879     0.0421 N.pl3        1    LIG   0.0000
   3 C3          -2.3179    -0.3733     0.0689 C.3          1    LIG   0.0000
   4 C4          -2.7638    -0.1942     1.5110 C.2          1    LIG   0.0000
   5 O5          -2.0153    -0.4661     2.4086 O.2          1    LIG   0.0000
   6 N6          -4.0203     0.2777     1.7858 N.am         1    LIG   0.0000
   7 C7          -4.4516     0.4508     3.1804 C.3          1    LIG   0.0000
   8 C8          -4.3972    -0.8882     3.8976 C.3          1    LIG   0.0000
   9 C9          -3.5284     1.4368     3.8776 C.3          1    LIG   0.0000
  10 C10         -5.8751     0.9830     3.2082 C.3          1    LIG   0.0000
  11 C11          0.1399     0.0036     0.0195 C.2          1    LIG   0.0000
  12 N12          1.3510    -0.3507    -0.0042 N.2          1    LIG   0.0000
  13 N13          2.1402     0.7395    -0.0216 N.pl3        1    LIG   0.0000
  14 C14          1.3315     1.8610    -0.0129 C.2          1    LIG   0.0000
  15 C15          1.7164     3.1268    -0.0303 C.2          1    LIG   0.0000
  16 C16          3.0437     3.6424     0.2205 C.2          1    LIG   0.0000
  17 N17          3.0192     4.9056     0.1247 N.2          1    LIG   0.0000
  18 C18          1.7370     5.3817    -0.1819 C.ar         1    LIG   0.0000
  19 C19          1.2525     6.6726    -0.3661 C.ar         1    LIG   0.0000
  20 C20         -0.0918     6.8623    -0.6702 C.ar         1    LIG   0.0000
  21 C21         -0.9432     5.7685    -0.7899 C.ar         1    LIG   0.0000
  22 C22         -0.4304     4.4896    -0.6002 C.ar         1    LIG   0.0000
  23 C23          0.9133     4.2926    -0.2957 C.ar         1    LIG   0.0000
  24 N24          0.0213     1.3881     0.0183 N.pl3        1    LIG   0.0000
  25 C25         -1.2143     2.1828     0.0446 C.3          1    LIG   0.0000
  26 C26         -1.5382     2.6626    -1.3611 C.2          1    LIG   0.0000
  27 C27         -2.3240     1.9970    -2.3224 C.2          1    LIG   0.0000
  28 C28         -2.3141     2.8228    -3.4016 C.2          1    LIG   0.0000
  29 C29         -3.0201     2.5662    -4.7229 C.3          1    LIG   0.0000
  30 O30         -4.3332     3.1041    -4.6701 O.3          1    LIG   0.0000
  31 C31         -5.1447     2.5475    -3.6465 C.3          1    LIG   0.0000
  32 C32         -5.2820     1.0498    -3.8669 C.3          1    LIG   0.0000
  33 C33         -4.5005     2.8035    -2.2937 C.3          1    LIG   0.0000
  34 C34         -6.5202     3.1932    -3.6829 C.3          1    LIG   0.0000
  35 O35         -1.5938     3.8782    -3.1099 O.2          1    LIG   0.0000
  36 N36         -1.1459     3.7772    -1.9241 N.2          1    LIG   0.0000
  37 H           -1.5730    -2.8222     0.0570 H            1    LIG   0.0000
  38 H           -0.1948    -2.5896    -0.7874 H            1    LIG   0.0000
  39 H           -0.1622    -2.5877     0.8452 H            1    LIG   0.0000
  40 H           -2.9252    -1.0219    -0.3897 H            1    LIG   0.0000
  41 H           -2.3536     0.5077    -0.4029 H            1    LIG   0.0000
  42 H           -4.6440     0.5043     1.0378 H            1    LIG   0.0000
  43 H           -4.6906    -0.7704     4.8463 H            1    LIG   0.0000
  44 H           -5.0045    -1.5369     3.4390 H            1    LIG   0.0000
  45 H           -3.4607    -1.2383     3.8793 H            1    LIG   0.0000
  46 H           -3.8218     1.5546     4.8263 H            1    LIG   0.0000
  47 H           -2.5919     1.0867     3.8593 H            1    LIG   0.0000
  48 H           -3.5642     2.3178     3.4057 H            1    LIG   0.0000
  49 H           -6.1685     1.1008     4.1569 H            1    LIG   0.0000
  50 H           -5.9109     1.8640     2.7363 H            1    LIG   0.0000
  51 H           -6.4825     0.3343     2.7495 H            1    LIG   0.0000
  52 H            3.1401     0.7386    -0.0381 H            1    LIG   0.0000
  53 H            3.8502     3.0914     0.4347 H            1    LIG   0.0000
  54 H            1.8656     7.4580    -0.2805 H            1    LIG   0.0000
  55 H           -0.4471     7.7875    -0.8032 H            1    LIG   0.0000
  56 H           -1.9100     5.8999    -1.0091 H            1    LIG   0.0000
  57 H           -1.0369     3.6990    -0.6839 H            1    LIG   0.0000
  58 H           -1.0902     2.9721     0.6459 H            1    LIG   0.0000
  59 H           -1.9662     1.6188     0.3858 H            1    LIG   0.0000
  60 H           -2.7856     1.1146    -2.2311 H            1    LIG   0.0000
  61 H           -2.5102     3.0036    -5.4636 H            1    LIG   0.0000
  62 H           -3.0697     1.5813    -4.8885 H            1    LIG   0.0000
  63 H           -5.8535     0.6578    -3.1460 H            1    LIG   0.0000
  64 H           -5.7058     0.8814    -4.7569 H            1    LIG   0.0000
  65 H           -4.3771     0.6250    -3.8429 H            1    LIG   0.0000
  66 H           -5.0720     2.4115    -1.5728 H            1    LIG   0.0000
  67 H           -3.5955     2.3787    -2.2697 H            1    LIG   0.0000
  68 H           -4.4102     3.7888    -2.1487 H            1    LIG   0.0000
  69 H           -7.0917     2.8012    -2.9620 H            1    LIG   0.0000
  70 H           -6.4299     4.1785    -3.5379 H            1    LIG   0.0000
  71 H           -6.9440     3.0247    -4.5729 H            1    LIG   0.0000
@<TRIPOS>BOND
   1        1        2 1
   2        2        3 1
   3        3        4 1
   4        4        5 2
   5        4        6 am
   6        6        7 1
   7        7        8 1
   8        7        9 1
   9        7       10 1
  10        2       11 1
  11       11       12 2
  12       12       13 1
  13       13       14 1
  14       14       15 2
  15       15       16 1
  16       16       17 2
  17       17       18 1
  18       18       19 ar
  19       19       20 ar
  20       20       21 ar
  21       21       22 ar
  22       22       23 ar
  23       23       18 ar
  24       23       15 1
  25       14       24 1
  26       24       11 1
  27       24       25 1
  28       25       26 1
  29       26       27 1
  30       27       28 2
  31       28       29 1
  32       29       30 1
  33       30       31 1
  34       31       32 1
  35       31       33 1
  36       31       34 1
  37       28       35 1
  38       35       36 1
  39       36       26 2
  40        1       37 1
  41        1       38 1
  42        1       39 1
  43        3       40 1
  44        3       41 1
  45        6       42 1
  46        8       43 1
  47        8       44 1
  48        8       45 1
  49        9       46 1
  50        9       47 1
  51        9       48 1
  52       10       49 1
  53       10       50 1
  54       10       51 1
  55       13       52 1
  56       16       53 1
  57       19       54 1
  58       20       55 1
  59       21       56 1
  60       22       57 1
  61       25       58 1
  62       25       59 1
  63       27       60 1
  64       29       61 1
  65       29       62 1
  66       32       63 1
  67       32       64 1
  68       32       65 1
  69       33       66 1
  70       33       67 1
  71       33       68 1
  72       34       69 1
  73       34       70 1
  74       34       71 1

@<TRIPOS>MOLECULE

  71   74
SMALL
USER_CHARGES
@<TRIPOS>ATOM
   1 C1          -0.7942    -2.2054     0.6774 C.3          1    LIG   0.0000
   2 N2          -0.9412    -0.8879     0.0421 N.pl3        1    LIG   0.0000
   3 C3          -2.2221    -0.5056    -0.5695 C.3          1    LIG   0.0000
   4 C4          -2.2325    -0.9281    -2.0295 C.2          1    LIG   0.0000
   5 O5          -1.2787    -1.4837    -2.5002 O.2          1    LIG   0.0000
   6 N6          -3.3309    -0.6746    -2.8081 N.am         1    LIG   0.0000
   7 C7          -3.3410    -1.0833    -4.2202 C.3          1    LIG   0.0000
   8 C8          -1.9755    -0.8199    -4.8337 C.3          1    LIG   0.0000
   9 C9          -3.6622    -2.5658    -4.3163 C.3          1    LIG   0.0000
  10 C10         -4.3958    -0.2867    -4.9706 C.3          1    LIG   0.0000
  11 C11          0.1399     0.0036     0.0195 C.2          1    LIG   0.0000
  12 N12          1.3510    -0.3507    -0.0042 N.2          1    LIG   0.0000
  13 N13          2.1402     0.7395    -0.0216 N.pl3        1    LIG   0.0000
  14 C14          1.3315     1.8610    -0.0129 C.2          1    LIG   0.0000
  15 C15          1.7164     3.1268    -0.0303 C.2          1    LIG   0.0000
  16 C16          3.0437     3.6424     0.2205 C.2          1    LIG   0.0000
  17 N17          3.0192     4.9056     0.1247 N.2          1    LIG   0.0000
  18 C18          1.7370     5.3817    -0.1819 C.ar         1    LIG   0.0000
  19 C19          1.2525     6.6726    -0.3661 C.ar         1    LIG   0.0000
  20 C20         -0.0918     6.8623    -0.6702 C.ar         1    LIG   0.0000
  21 C21         -0.9432     5.7685    -0.7899 C.ar         1    LIG   0.0000
  22 C22         -0.4304     4.4896    -0.6002 C.ar         1    LIG   0.0000
  23 C23          0.9133     4.2926    -0.2957 C.ar         1    LIG   0.0000
  24 N24          0.0213     1.3881     0.0183 N.pl3        1    LIG   0.0000
  25 C25         -1.2143     2.1828     0.0446 C.3          1    LIG   0.0000
  26 C26         -1.5382     2.6626    -1.3611 C.2          1    LIG   0.0000
  27 C27         -2.3240     1.9970    -2.3224 C.2          1    LIG   0.0000
  28 C28         -2.3141     2.8228    -3.4016 C.2          1    LIG   0.0000
  29 C29         -3.0201     2.5662    -4.7229 C.3          1    LIG   0.0000
  30 O30         -4.3332     3.1041    -4.6701 O.3          1    LIG   0.0000
  31 C31         -5.1447     2.5475    -3.6465 C.3          1    LIG   0.0000
  32 C32         -5.2820     1.0498    -3.8669 C.3          1    LIG   0.0000
  33 C33         -4.5005     2.8035    -2.2937 C.3          1    LIG   0.0000
  34 C34         -6.5202     3.1932    -3.6829 C.3          1    LIG   0.0000
  35 O35         -1.5938     3.8782    -3.1099 O.2          1    LIG   0.0000
  36 N36         -1.1459     3.7772    -1.9241 N.2          1    LIG   0.0000
  37 H           -1.6551    -2.7088     0.6037 H            1    LIG   0.0000
  38 H           -0.0682    -2.7176     0.2185 H            1    LIG   0.0000
  39 H           -0.5594    -2.0860     1.6420 H            1    LIG   0.0000
  40 H           -2.3378     0.4858    -0.5085 H            1    LIG   0.0000
  41 H           -2.9708    -0.9589    -0.0859 H            1    LIG   0.0000
  42 H           -4.1257    -0.2116    -2.4159 H            1    LIG   0.0000
  43 H           -1.9824    -1.0978    -5.7942 H            1    LIG   0.0000
  44 H           -1.7642     0.1555    -4.7704 H            1    LIG   0.0000
  45 H           -1.2815    -1.3440    -4.3399 H            1    LIG   0.0000
  46 H           -3.6691    -2.8438    -5.2769 H            1    LIG   0.0000
  47 H           -2.9682    -3.0899    -3.8226 H            1    LIG   0.0000
  48 H           -4.5605    -2.7391    -3.9127 H            1    LIG   0.0000
  49 H           -4.4027    -0.5646    -5.9312 H            1    LIG   0.0000
  50 H           -5.2942    -0.4600    -4.5670 H            1    LIG   0.0000
  51 H           -4.1845     0.6887    -4.9074 H            1    LIG   0.0000
  52 H            3.1401     0.7386    -0.0381 H            1    LIG   0.0000
  53 H            3.8502     3.0914     0.4347 H            1    LIG   0.0000
  54 H            1.8656     7.4580    -0.2805 H            1    LIG   0.0000
  55 H           -0.4471     7.7875    -0.8032 H            1    LIG   0.0000
  56 H           -1.9100     5.8999    -1.0091 H            1    LIG   0.0000
  57 H           -1.0369     3.6990    -0.6839 H            1    LIG   0.0000
  58 H           -1.0902     2.9721     0.6459 H            1    LIG   0.0000
  59 H           -1.9662     1.6188     0.3858 H            1    LIG   0.0000
  60 H           -2.7856     1.1146    -2.2311 H            1    LIG   0.0000
  61 H           -2.5102     3.0036    -5.4636 H            1    LIG   0.0000
  62 H           -3.0697     1.5813    -4.8885 H            1    LIG   0.0000
  63 H           -5.8535     0.6578    -3.1460 H            1    LIG   0.0000
  64 H           -5.7058     0.8814    -4.7569 H            1    LIG   0.0000
  65 H           -4.3771     0.6250    -3.8429 H            1    LIG   0.0000
  66 H           -5.0720     2.4115    -1.5728 H            1    LIG   0.0000
  67 H           -3.5955     2.3787    -2.2697 H            1    LIG   0.0000
  68 H           -4.4102     3.7888    -2.1487 H            1    LIG   0.0000
  69 H           -7.0917     2.8012    -2.9620 H            1    LIG   0.0000
  70 H           -6.4299     4.1785    -3.5379 H            1    LIG   0.0000
  71 H           -6.9440     3.0247    -4.5729 H            1    LIG   0.0000
@<TRIPOS>BOND
   1        1        2 1
   2        2        3 1
   3        3        4 1
   4        4        5 2
   5        4        6 am
   6        6        7 1
   7        7        8 1
   8        7        9 1
   9        7       10 1
  10        2       11 1
  11       11       12 2
  12       12       13 1
  13       13       14 1
  14       14       15 2
  15       15       16 1
  16       16       17 2
  17       17       18 1
  18       18       19 ar
  19       19       20 ar
  20       20       21 ar
  21       21       22 ar
  22       22       23 ar
  23       23       18 ar
  24       23       15 1
  25       14       24 1
  26       24       11 1
  27       24       25 1
  28       25       26 1
  29       26       27 1
  30       27       28 2
  31       28       29 1
  32       29       30 1
  33       30       31 1
  34       31       32 1
  35       31       33 1
  36       31       34 1
  37       28       35 1
  38       35       36 1
  39       36       26 2
  40        1       37 1
  41        1       38 1
  42        1       39 1
  43        3       40 1
  44        3       41 1
  45        6       42 1
  46        8       43 1
  47        8       44 1
  48        8       45 1
  49        9       46 1
  50        9       47 1
  51        9       48 1
  52       10       49 1
  53       10       50 1
  54       10       51 1
  55       13       52 1
  56       16       53 1
  57       19       54 1
  58       20       55 1
  59       21       56 1
  60       22       57 1
  61       25       58 1
  62       25       59 1
  63       27       60 1
  64       29       61 1
  65       29       62 1
  66       32       63 1
  67       32       64 1
  68       32       65 1
  69       33       66 1
  70       33       67 1
  71       33       68 1
  72       34       69 1
  73       34       70 1
  74       34       71 1

@<TRIPOS>MOLECULE

  71   74
SMALL
USER_CHARGES
@<TRIPOS>ATOM
   1 C1          -0.8196    -2.2069    -0.5954 C.3          1    LIG   0.0000
   2 N2          -0.9412    -0.8879     0.0421 N.pl3        1    LIG   0.0000
   3 C3          -2.1967    -0.5041     0.7033 C.3          1    LIG   0.0000
   4 C4          -3.2758    -0.2876    -0.3450 C.2          1    LIG   0.0000
   5 O5          -3.0074     0.2611    -1.3779 O.2          1    LIG   0.0000
   6 N6          -4.5549    -0.7189    -0.1107 N.am         1    LIG   0.0000
   7 C7          -5.5985    -0.5096    -1.1245 C.3          1    LIG   0.0000
   8 C8          -5.7557     0.9788    -1.3899 C.3          1    LIG   0.0000
   9 C9          -5.2032    -1.2148    -2.4117 C.3          1    LIG   0.0000
  10 C10         -6.9157    -1.0762    -0.6203 C.3          1    LIG   0.0000
  11 C11          0.1399     0.0036     0.0195 C.2          1    LIG   0.0000
  12 N12          1.3510    -0.3507    -0.0042 N.2          1    LIG   0.0000
  13 N13          2.1402     0.7395    -0.0216 N.pl3        1    LIG   0.0000
  14 C14          1.3315     1.8610    -0.0129 C.2          1    LIG   0.0000
  15 C15          1.7164     3.1268    -0.0303 C.2          1    LIG   0.0000
  16 C16          3.0437     3.6424     0.2205 C.2          1    LIG   0.0000
  17 N17          3.0192     4.9056     0.1247 N.2          1    LIG   0.0000
  18 C18          1.7370     5.3817    -0.1819 C.ar         1    LIG   0.0000
  19 C19          1.2525     6.6726    -0.3661 C.ar         1    LIG   0.0000
  20 C20         -0.0918     6.8623    -0.6702 C.ar         1    LIG   0.0000
  21 C21         -0.9432     5.7685    -0.7899 C.ar         1    LIG   0.0000
  22 C22         -0.4304     4.4896    -0.6002 C.ar         1    LIG   0.0000
  23 C23          0.9133     4.2926    -0.2957 C.ar         1    LIG   0.0000
  24 N24          0.0213     1.3881     0.0183 N.pl3        1    LIG   0.0000
  25 C25         -1.2143     2.1828     0.0446 C.3          1    LIG   0.0000
  26 C26         -1.5382     2.6626    -1.3611 C.2          1    LIG   0.0000
  27 C27         -2.3240     1.9970    -2.3224 C.2          1    LIG   0.0000
  28 C28         -2.3141     2.8228    -3.4016 C.2          1    LIG   0.0000
  29 C29         -3.0201     2.5662    -4.7229 C.3          1    LIG   0.0000
  30 O30         -4.3332     3.1041    -4.6701 O.3          1    LIG   0.0000
  31 C31         -5.1447     2.5475    -3.6465 C.3          1    LIG   0.0000
  32 C32         -5.2820     1.0498    -3.8669 C.3          1    LIG   0.0000
  33 C33         -4.5005     2.8035    -2.2937 C.3          1    LIG   0.0000
  34 C34         -6.5202     3.1932    -3.6829 C.3          1    LIG   0.0000
  35 O35         -1.5938     3.8782    -3.1099 O.2          1    LIG   0.0000
  36 N36         -1.1459     3.7772    -1.9241 N.2          1    LIG   0.0000
  37 H           -1.6768    -2.7101    -0.4864 H            1    LIG   0.0000
  38 H           -0.6233    -2.0897    -1.5690 H            1    LIG   0.0000
  39 H           -0.0758    -2.7180    -0.1646 H            1    LIG   0.0000
  40 H           -2.0573     0.3419     1.2179 H            1    LIG   0.0000
  41 H           -2.4802    -1.2315     1.3283 H            1    LIG   0.0000
  42 H           -4.7785    -1.1762     0.7501 H            1    LIG   0.0000
  43 H           -6.4657     1.1212    -2.0796 H            1    LIG   0.0000
  44 H           -6.0158     1.4428    -0.5431 H            1    LIG   0.0000
  45 H           -4.8891     1.3516    -1.7217 H            1    LIG   0.0000
  46 H           -5.9131    -1.0723    -3.1014 H            1    LIG   0.0000
  47 H           -4.3366    -0.8420    -2.7434 H            1    LIG   0.0000
  48 H           -5.0998    -2.1940    -2.2371 H            1    LIG   0.0000
  49 H           -7.6257    -0.9338    -1.3100 H            1    LIG   0.0000
  50 H           -6.8123    -2.0554    -0.4457 H            1    LIG   0.0000
  51 H           -7.1758    -0.6123     0.2266 H            1    LIG   0.0000
  52 H            3.1401     0.7386    -0.0381 H            1    LIG   0.0000
  53 H            3.8502     3.0914     0.4347 H            1    LIG   0.0000
  54 H            1.8656     7.4580    -0.2805 H            1    LIG   0.0000
  55 H           -0.4471     7.7875    -0.8032 H            1    LIG   0.0000
  56 H           -1.9100     5.8999    -1.0091 H            1    LIG   0.0000
  57 H           -1.0369     3.6990    -0.6839 H            1    LIG   0.0000
  58 H           -1.0902     2.9721     0.6459 H            1    LIG   0.0000
  59 H           -1.9662     1.6188     0.3858 H            1    LIG   0.0000
  60 H           -2.7856     1.1146    -2.2311 H            1    LIG   0.0000
  61 H           -2.5102     3.0036    -5.4636 H            1    LIG   0.0000
  62 H           -3.0697     1.5813    -4.8885 H            1    LIG   0.0000
  63 H           -5.8535     0.6578    -3.1460 H            1    LIG   0.0000
  64 H           -5.7058     0.8814    -4.7569 H            1    LIG   0.0000
  65 H           -4.3771     0.6250    -3.8429 H            1    LIG   0.0000
  66 H           -5.0720     2.4115    -1.5728 H            1    LIG   0.0000
  67 H           -3.5955     2.3787    -2.2697 H            1    LIG   0.0000
  68 H           -4.4102     3.7888    -2.1487 H            1    LIG   0.0000
  69 H           -7.0917     2.8012    -2.9620 H            1    LIG   0.0000
  70 H           -6.4299     4.1785    -3.5379 H            1    LIG   0.0000
  71 H           -6.9440     3.0247    -4.5729 H            1    LIG   0.0000
@<TRIPOS>BOND
   1        1        2 1
   2        2        3 1
   3        3        4 1
   4        4        5 2
   5        4        6 am
   6        6        7 1
   7        7        8 1
   8        7        9 1
   9        7       10 1
  10        2       11 1
  11       11       12 2
  12       12       13 1
  13       13       14 1
  14       14       15 2
  15       15       16 1
  16       16       17 2
  17       17       18 1
  18       18       19 ar
  19       19       20 ar
  20       20       21 ar
  21       21       22 ar
  22       22       23 ar
  23       23       18 ar
  24       23       15 1
  25       14       24 1
  26       24       11 1
  27       24       25 1
  28       25       26 1
  29       26       27 1
  30       27       28 2
  31       28       29 1
  32       29       30 1
  33       30       31 1
  34       31       32 1
  35       31       33 1
  36       31       34 1
  37       28       35 1
  38       35       36 1
  39       36       26 2
  40        1       37 1
  41        1       38 1
  42        1       39 1
  43        3       40 1
  44        3       41 1
  45        6       42 1
  46        8       43 1
  47        8       44 1
  48        8       45 1
  49        9       46 1
  50        9       47 1
  51        9       48 1
  52       10       49 1
  53       10       50 1
  54       10       51 1
  55       13       52 1
  56       16       53 1
  57       19       54 1
  58       20       55 1
  59       21       56 1
  60       22       57 1
  61       25       58 1
  62       25       59 1
  63       27       60 1
  64       29       61 1
  65       29       62 1
  66       32       63 1
  67       32       64 1
  68       32       65 1
  69       33       66 1
  70       33       67 1
  71       33       68 1
  72       34       69 1
  73       34       70 1
  74       34       71 1

@<TRIPOS>MOLECULE

  71   74
SMALL
USER_CHARGES
@<TRIPOS>ATOM
   1 C1          -2.3179    -0.3733     0.0689 C.3          1    LIG   0.0000
   2 N2          -0.9412    -0.8879     0.0421 N.pl3        1    LIG   0.0000
   3 C3          -0.6984    -2.3377     0.0390 C.3          1    LIG   0.0000
   4 C4          -0.6433    -2.8391    -1.3949 C.2          1    LIG   0.0000
   5 O5          -0.7902    -2.0711    -2.3051 O.2          1    LIG   0.0000
   6 N6          -0.4258    -4.1678    -1.6481 N.am         1    LIG   0.0000
   7 C7          -0.3725    -4.6527    -3.0348 C.3          1    LIG   0.0000
   8 C8          -1.6942    -4.3588    -3.7254 C.3          1    LIG   0.0000
   9 C9           0.7533    -3.9489    -3.7747 C.3          1    LIG   0.0000
  10 C10         -0.1215    -6.1519    -3.0380 C.3          1    LIG   0.0000
  11 C11          0.1399     0.0036     0.0195 C.2          1    LIG   0.0000
  12 N12          1.3510    -0.3507    -0.0042 N.2          1    LIG   0.0000
  13 N13          2.1402     0.7395    -0.0216 N.pl3        1    LIG   0.0000
  14 C14          1.3315     1.8610    -0.0129 C.2          1    LIG   0.0000
  15 C15          1.7164     3.1268    -0.0303 C.2          1    LIG   0.0000
  16 C16          3.0437     3.6424     0.2205 C.2          1    LIG   0.0000
  17 N17          3.0192     4.9056     0.1247 N.2          1    LIG   0.0000
  18 C18          1.7370     5.3817    -0.1819 C.ar         1    LIG   0.0000
  19 C19          1.2525     6.6726    -0.3661 C.ar         1    LIG   0.0000
  20 C20         -0.0918     6.8623    -0.6702 C.ar         1    LIG   0.0000
  21 C21         -0.9432     5.7685    -0.7899 C.ar         1    LIG   0.0000
  22 C22         -0.4304     4.4896    -0.6002 C.ar         1    LIG   0.0000
  23 C23          0.9133     4.2926    -0.2957 C.ar         1    LIG   0.0000
  24 N24          0.0213     1.3881     0.0183 N.pl3        1    LIG   0.0000
  25 C25         -1.2143     2.1828     0.0446 C.3          1    LIG   0.0000
  26 C26         -1.5382     2.6626    -1.3611 C.2          1    LIG   0.0000
  27 C27         -2.3240     1.9970    -2.3224 C.2          1    LIG   0.0000
  28 C28         -2.3141     2.8228    -3.4016 C.2          1    LIG   0.0000
  29 C29         -3.0201     2.5662    -4.7229 C.3          1    LIG   0.0000
  30 O30         -4.3332     3.1041    -4.6701 O.3          1    LIG   0.0000
  31 C31         -5.1447     2.5475    -3.6465 C.3          1    LIG   0.0000
  32 C32         -5.2820     1.0498    -3.8669 C.3          1    LIG   0.0000
  33 C33         -4.5005     2.8035    -2.2937 C.3          1    LIG   0.0000
  34 C34         -6.5202     3.1932    -3.6829 C.3          1    LIG   0.0000
  35 O35         -1.5938     3.8782    -3.1099 O.2          1    LIG   0.0000
  36 N36         -1.1459     3.7772    -1.9241 N.2          1    LIG   0.0000
  37 H           -2.9600    -1.1397     0.0826 H            1    LIG   0.0000
  38 H           -2.4488     0.1860     0.8875 H            1    LIG   0.0000
  39 H           -2.4813     0.1841    -0.7451 H            1    LIG   0.0000
  40 H           -1.4391    -2.8008     0.5258 H            1    LIG   0.0000
  41 H            0.1712    -2.5311     0.4934 H            1    LIG   0.0000
  42 H           -0.3034    -4.8079    -0.8895 H            1    LIG   0.0000
  43 H           -1.6580    -4.6887    -4.6688 H            1    LIG   0.0000
  44 H           -2.4349    -4.8219    -3.2386 H            1    LIG   0.0000
  45 H           -1.8594    -3.3726    -3.7233 H            1    LIG   0.0000
  46 H            0.7896    -4.2788    -4.7180 H            1    LIG   0.0000
  47 H            0.5882    -2.9626    -3.7726 H            1    LIG   0.0000
  48 H            1.6229    -4.1423    -3.3203 H            1    LIG   0.0000
  49 H           -0.0852    -6.4817    -3.9813 H            1    LIG   0.0000
  50 H            0.7481    -6.3452    -2.5836 H            1    LIG   0.0000
  51 H           -0.8622    -6.6149    -2.5512 H            1    LIG   0.0000
  52 H            3.1401     0.7386    -0.0381 H            1    LIG   0.0000
  53 H            3.8502     3.0914     0.4347 H            1    LIG   0.0000
  54 H            1.8656     7.4580    -0.2805 H            1    LIG   0.0000
  55 H           -0.4471     7.7875    -0.8032 H            1    LIG   0.0000
  56 H           -1.9100     5.8999    -1.0091 H            1    LIG   0.0000
  57 H           -1.0369     3.6990    -0.6839 H            1    LIG   0.0000
  58 H           -1.0902     2.9721     0.6459 H            1    LIG   0.0000
  59 H           -1.9662     1.6188     0.3858 H            1    LIG   0.0000
  60 H           -2.7856     1.1146    -2.2311 H            1    LIG   0.0000
  61 H           -2.5102     3.0036    -5.4636 H            1    LIG   0.0000
  62 H           -3.0697     1.5813    -4.8885 H            1    LIG   0.0000
  63 H           -5.8535     0.6578    -3.1460 H            1    LIG   0.0000
  64 H           -5.7058     0.8814    -4.7569 H            1    LIG   0.0000
  65 H           -4.3771     0.6250    -3.8429 H            1    LIG   0.0000
  66 H           -5.0720     2.4115    -1.5728 H            1    LIG   0.0000
  67 H           -3.5955     2.3787    -2.2697 H            1    LIG   0.0000
  68 H           -4.4102     3.7888    -2.1487 H            1    LIG   0.0000
  69 H           -7.0917     2.8012    -2.9620 H            1    LIG   0.0000
  70 H           -6.4299     4.1785    -3.5379 H            1    LIG   0.0000
  71 H           -6.9440     3.0247    -4.5729 H            1    LIG   0.0000
@<TRIPOS>BOND
   1        1        2 1
   2        2        3 1
   3        3        4 1
   4        4        5 2
   5        4        6 am
   6        6        7 1
   7        7        8 1
   8        7        9 1
   9        7       10 1
  10        2       11 1
  11       11       12 2
  12       12       13 1
  13       13       14 1
  14       14       15 2
  15       15       16 1
  16       16       17 2
  17       17       18 1
  18       18       19 ar
  19       19       20 ar
  20       20       21 ar
  21       21       22 ar
  22       22       23 ar
  23       23       18 ar
  24       23       15 1
  25       14       24 1
  26       24       11 1
  27       24       25 1
  28       25       26 1
  29       26       27 1
  30       27       28 2
  31       28       29 1
  32       29       30 1
  33       30       31 1
  34       31       32 1
  35       31       33 1
  36       31       34 1
  37       28       35 1
  38       35       36 1
  39       36       26 2
  40        1       37 1
  41        1       38 1
  42        1       39 1
  43        3       40 1
  44        3       41 1
  45        6       42 1
  46        8       43 1
  47        8       44 1
  48        8       45 1
  49        9       46 1
  50        9       47 1
  51        9       48 1
  52       10       49 1
  53       10       50 1
  54       10       51 1
  55       13       52 1
  56       16       53 1
  57       19       54 1
  58       20       55 1
  59       21       56 1
  60       22       57 1
  61       25       58 1
  62       25       59 1
  63       27       60 1
  64       29       61 1
  65       29       62 1
  66       32       63 1
  67       32       64 1
  68       32       65 1
  69       33       66 1
  70       33       67 1
  71       33       68 1
  72       34       69 1
  73       34       70 1
  74       34       71 1

@<TRIPOS>MOLECULE

  71   74
SMALL
USER_CHARGES
@<TRIPOS>ATOM
   1 C1          -2.3179    -0.3733     0.0689 C.3          1    LIG   0.0000
   2 N2          -0.9412    -0.8879     0.0421 N.pl3        1    LIG   0.0000
   3 C3          -0.6984    -2.3377     0.0390 C.3          1    LIG   0.0000
   4 C4          -0.5862    -2.8357     1.4707 C.2          1    LIG   0.0000
   5 O5          -0.6968    -2.0656     2.3842 O.2          1    LIG   0.0000
   6 N6          -0.3587    -4.1639     1.7181 N.am         1    LIG   0.0000
   7 C7          -0.2502    -4.6455     3.1027 C.3          1    LIG   0.0000
   8 C8           0.9042    -3.9400     3.7955 C.3          1    LIG   0.0000
   9 C9          -1.5434    -4.3500     3.8448 C.3          1    LIG   0.0000
  10 C10          0.0008    -6.1447     3.0994 C.3          1    LIG   0.0000
  11 C11          0.1399     0.0036     0.0195 C.2          1    LIG   0.0000
  12 N12          1.3510    -0.3507    -0.0042 N.2          1    LIG   0.0000
  13 N13          2.1402     0.7395    -0.0216 N.pl3        1    LIG   0.0000
  14 C14          1.3315     1.8610    -0.0129 C.2          1    LIG   0.0000
  15 C15          1.7164     3.1268    -0.0303 C.2          1    LIG   0.0000
  16 C16          3.0437     3.6424     0.2205 C.2          1    LIG   0.0000
  17 N17          3.0192     4.9056     0.1247 N.2          1    LIG   0.0000
  18 C18          1.7370     5.3817    -0.1819 C.ar         1    LIG   0.0000
  19 C19          1.2525     6.6726    -0.3661 C.ar         1    LIG   0.0000
  20 C20         -0.0918     6.8623    -0.6702 C.ar         1    LIG   0.0000
  21 C21         -0.9432     5.7685    -0.7899 C.ar         1    LIG   0.0000
  22 C22         -0.4304     4.4896    -0.6002 C.ar         1    LIG   0.0000
  23 C23          0.9133     4.2926    -0.2957 C.ar         1    LIG   0.0000
  24 N24          0.0213     1.3881     0.0183 N.pl3        1    LIG   0.0000
  25 C25         -1.2143     2.1828     0.0446 C.3          1    LIG   0.0000
  26 C26         -1.5382     2.6626    -1.3611 C.2          1    LIG   0.0000
  27 C27         -2.3240     1.9970    -2.3224 C.2          1    LIG   0.0000
  28 C28         -2.3141     2.8228    -3.4016 C.2          1    LIG   0.0000
  29 C29         -3.0201     2.5662    -4.7229 C.3          1    LIG   0.0000
  30 O30         -4.3332     3.1041    -4.6701 O.3          1    LIG   0.0000
  31 C31         -5.1447     2.5475    -3.6465 C.3          1    LIG   0.0000
  32 C32         -5.2820     1.0498    -3.8669 C.3          1    LIG   0.0000
  33 C33         -4.5005     2.8035    -2.2937 C.3          1    LIG   0.0000
  34 C34         -6.5202     3.1932    -3.6829 C.3          1    LIG   0.0000
  35 O35         -1.5938     3.8782    -3.1099 O.2          1    LIG   0.0000
  36 N36         -1.1459     3.7772    -1.9241 N.2          1    LIG   0.0000
  37 H           -2.9600    -1.1397     0.0826 H            1    LIG   0.0000
  38 H           -2.4488     0.1860     0.8875 H            1    LIG   0.0000
  39 H           -2.4813     0.1841    -0.7451 H            1    LIG   0.0000
  40 H            0.1524    -2.5322    -0.4493 H            1    LIG   0.0000
  41 H           -1.4579    -2.8019    -0.4169 H            1    LIG   0.0000
  42 H           -0.2666    -4.8057     0.9568 H            1    LIG   0.0000
  43 H            0.9780    -4.2677     4.7375 H            1    LIG   0.0000
  44 H            1.7550    -4.1345     3.3073 H            1    LIG   0.0000
  45 H            0.7390    -2.9538     3.7977 H            1    LIG   0.0000
  46 H           -1.4696    -4.6776     4.7867 H            1    LIG   0.0000
  47 H           -1.7085    -3.3637     3.8469 H            1    LIG   0.0000
  48 H           -2.3029    -4.8141     3.3890 H            1    LIG   0.0000
  49 H            0.0746    -6.4723     4.0414 H            1    LIG   0.0000
  50 H           -0.7587    -6.6088     2.6436 H            1    LIG   0.0000
  51 H            0.8516    -6.3391     2.6112 H            1    LIG   0.0000
  52 H            3.1401     0.7386    -0.0381 H            1    LIG   0.0000
  53 H            3.8502     3.0914     0.4347 H            1    LIG   0.0000
  54 H            1.8656     7.4580    -0.2805 H            1    LIG   0.0000
  55 H           -0.4471     7.7875    -0.8032 H            1    LIG   0.0000
  56 H           -1.9100     5.8999    -1.0091 H            1    LIG   0.0000
  57 H           -1.0369     3.6990    -0.6839 H            1    LIG   0.0000
  58 H           -1.0902     2.9721     0.6459 H            1    LIG   0.0000
  59 H           -1.9662     1.6188     0.3858 H            1    LIG   0.0000
  60 H           -2.7856     1.1146    -2.2311 H            1    LIG   0.0000
  61 H           -2.5102     3.0036    -5.4636 H            1    LIG   0.0000
  62 H           -3.0697     1.5813    -4.8885 H            1    LIG   0.0000
  63 H           -5.8535     0.6578    -3.1460 H            1    LIG   0.0000
  64 H           -5.7058     0.8814    -4.7569 H            1    LIG   0.0000
  65 H           -4.3771     0.6250    -3.8429 H            1    LIG   0.0000
  66 H           -5.0720     2.4115    -1.5728 H            1    LIG   0.0000
  67 H           -3.5955     2.3787    -2.2697 H            1    LIG   0.0000
  68 H           -4.4102     3.7888    -2.1487 H            1    LIG   0.0000
  69 H           -7.0917     2.8012    -2.9620 H            1    LIG   0.0000
  70 H           -6.4299     4.1785    -3.5379 H            1    LIG   0.0000
  71 H           -6.9440     3.0247    -4.5729 H            1    LIG   0.0000
@<TRIPOS>BOND
   1        1        2 1
   2        2        3 1
   3        3        4 1
   4        4        5 2
   5        4        6 am
   6        6        7 1
   7        7        8 1
   8        7        9 1
   9        7       10 1
  10        2       11 1
  11       11       12 2
  12       12       13 1
  13       13       14 1
  14       14       15 2
  15       15       16 1
  16       16       17 2
  17       17       18 1
  18       18       19 ar
  19       19       20 ar
  20       20       21 ar
  21       21       22 ar
  22       22       23 ar
  23       23       18 ar
  24       23       15 1
  25       14       24 1
  26       24       11 1
  27       24       25 1
  28       25       26 1
  29       26       27 1
  30       27       28 2
  31       28       29 1
  32       29       30 1
  33       30       31 1
  34       31       32 1
  35       31       33 1
  36       31       34 1
  37       28       35 1
  38       35       36 1
  39       36       26 2
  40        1       37 1
  41        1       38 1
  42        1       39 1
  43        3       40 1
  44        3       41 1
  45        6       42 1
  46        8       43 1
  47        8       44 1
  48        8       45 1
  49        9       46 1
  50        9       47 1
  51        9       48 1
  52       10       49 1
  53       10       50 1
  54       10       51 1
  55       13       52 1
  56       16       53 1
  57       19       54 1
  58       20       55 1
  59       21       56 1
  60       22       57 1
  61       25       58 1
  62       25       59 1
  63       27       60 1
  64       29       61 1
  65       29       62 1
  66       32       63 1
  67       32       64 1
  68       32       65 1
  69       33       66 1
  70       33       67 1
  71       33       68 1
  72       34       69 1
  73       34       70 1
  74       34       71 1

@<TRIPOS>MOLECULE

  71   74
SMALL
USER_CHARGES
@<TRIPOS>ATOM
   1 C1          -0.8715    -2.1070     0.8606 C.3          1    LIG   0.0000
   2 N2          -0.9412    -0.8879     0.0421 N.pl3        1    LIG   0.0000
   3 C3          -2.1447    -0.6040    -0.7527 C.3          1    LIG   0.0000
   4 C4          -3.1236     0.2058     0.0817 C.2          1    LIG   0.0000
   5 O5          -4.1759     0.5426    -0.3866 O.2          1    LIG   0.0000
   6 N6          -2.8045     0.5513     1.3685 N.am         1    LIG   0.0000
   7 C7          -3.5018     1.6668     2.0245 C.3          1    LIG   0.0000
   8 C8          -3.2708     2.9440     1.2334 C.3          1    LIG   0.0000
   9 C9          -4.9912     1.3693     2.0827 C.3          1    LIG   0.0000
  10 C10         -2.9643     1.8407     3.4356 C.3          1    LIG   0.0000
  11 C11          0.1399     0.0036     0.0195 C.2          1    LIG   0.0000
  12 N12          1.3510    -0.3507    -0.0042 N.2          1    LIG   0.0000
  13 N13          2.1402     0.7395    -0.0216 N.pl3        1    LIG   0.0000
  14 C14          1.3315     1.8610    -0.0129 C.2          1    LIG   0.0000
  15 C15          1.7164     3.1268    -0.0303 C.2          1    LIG   0.0000
  16 C16          3.0437     3.6424     0.2205 C.2          1    LIG   0.0000
  17 N17          3.0192     4.9056     0.1247 N.2          1    LIG   0.0000
  18 C18          1.7370     5.3817    -0.1819 C.ar         1    LIG   0.0000
  19 C19          1.2525     6.6726    -0.3661 C.ar         1    LIG   0.0000
  20 C20         -0.0918     6.8623    -0.6702 C.ar         1    LIG   0.0000
  21 C21         -0.9432     5.7685    -0.7899 C.ar         1    LIG   0.0000
  22 C22         -0.4304     4.4896    -0.6002 C.ar         1    LIG   0.0000
  23 C23          0.9133     4.2926    -0.2957 C.ar         1    LIG   0.0000
  24 N24          0.0213     1.3881     0.0183 N.pl3        1    LIG   0.0000
  25 C25         -1.2143     2.1828     0.0446 C.3          1    LIG   0.0000
  26 C26         -1.5382     2.6626    -1.3611 C.2          1    LIG   0.0000
  27 C27         -2.3240     1.9970    -2.3224 C.2          1    LIG   0.0000
  28 C28         -2.3141     2.8228    -3.4016 C.2          1    LIG   0.0000
  29 C29         -3.0201     2.5662    -4.7229 C.3          1    LIG   0.0000
  30 O30         -4.3332     3.1041    -4.6701 O.3          1    LIG   0.0000
  31 C31         -4.9033     3.1096    -3.3696 C.3          1    LIG   0.0000
  32 C32         -4.9806     1.6854    -2.8443 C.3          1    LIG   0.0000
  33 C33         -4.0384     3.9460    -2.4408 C.3          1    LIG   0.0000
  34 C34         -6.3012     3.7033    -3.4317 C.3          1    LIG   0.0000
  35 O35         -1.5938     3.8782    -3.1099 O.2          1    LIG   0.0000
  36 N36         -1.1459     3.7772    -1.9241 N.2          1    LIG   0.0000
  37 H           -1.7213    -2.6246     0.7607 H            1    LIG   0.0000
  38 H           -0.1016    -2.6685     0.5575 H            1    LIG   0.0000
  39 H           -0.7443    -1.8571     1.8205 H            1    LIG   0.0000
  40 H           -2.5734    -1.4647    -1.0275 H            1    LIG   0.0000
  41 H           -1.8908    -0.0830    -1.5676 H            1    LIG   0.0000
  42 H           -2.0973     0.0445     1.8615 H            1    LIG   0.0000
  43 H           -3.7451     3.7029     1.6796 H            1    LIG   0.0000
  44 H           -2.2909     3.1398     1.1951 H            1    LIG   0.0000
  45 H           -3.6244     2.8297     0.3050 H            1    LIG   0.0000
  46 H           -5.4656     2.1282     2.5289 H            1    LIG   0.0000
  47 H           -5.3449     1.2549     1.1543 H            1    LIG   0.0000
  48 H           -5.1432     0.5290     2.6032 H            1    LIG   0.0000
  49 H           -3.4386     2.5996     3.8818 H            1    LIG   0.0000
  50 H           -3.1162     1.0004     3.9561 H            1    LIG   0.0000
  51 H           -1.9844     2.0364     3.3973 H            1    LIG   0.0000
  52 H            3.1401     0.7386    -0.0381 H            1    LIG   0.0000
  53 H            3.8502     3.0914     0.4347 H            1    LIG   0.0000
  54 H            1.8656     7.4580    -0.2805 H            1    LIG   0.0000
  55 H           -0.4471     7.7875    -0.8032 H            1    LIG   0.0000
  56 H           -1.9100     5.8999    -1.0091 H            1    LIG   0.0000
  57 H           -1.0369     3.6990    -0.6839 H            1    LIG   0.0000
  58 H           -1.0902     2.9721     0.6459 H            1    LIG   0.0000
  59 H           -1.9662     1.6188     0.3858 H            1    LIG   0.0000
  60 H           -2.7856     1.1146    -2.2311 H            1    LIG   0.0000
  61 H           -2.5102     3.0036    -5.4636 H            1    LIG   0.0000
  62 H           -3.0697     1.5813    -4.8885 H            1    LIG   0.0000
  63 H           -5.3821     1.6892    -1.9285 H            1    LIG   0.0000
  64 H           -5.5497     1.1351    -3.4554 H            1    LIG   0.0000
  65 H           -4.0610     1.2948    -2.8035 H            1    LIG   0.0000
  66 H           -4.4399     3.9498    -1.5249 H            1    LIG   0.0000
  67 H           -3.1187     3.5554    -2.3999 H            1    LIG   0.0000
  68 H           -3.9875     4.8830    -2.7864 H            1    LIG   0.0000
  69 H           -6.7027     3.7072    -2.5159 H            1    LIG   0.0000
  70 H           -6.2503     4.6403    -3.7773 H            1    LIG   0.0000
  71 H           -6.8702     3.1531    -4.0428 H            1    LIG   0.0000
@<TRIPOS>BOND
   1        1        2 1
   2        2        3 1
   3        3        4 1
   4        4        5 2
   5        4        6 am
   6        6        7 1
   7        7        8 1
   8        7        9 1
   9        7       10 1
  10        2       11 1
  11       11       12 2
  12       12       13 1
  13       13       14 1
  14       14       15 2
  15       15       16 1
  16       16       17 2
  17       17       18 1
  18       18       19 ar
  19       19       20 ar
  20       20       21 ar
  21       21       22 ar
  22       22       23 ar
  23       23       18 ar
  24       23       15 1
  25       14       24 1
  26       24       11 1
  27       24       25 1
  28       25       26 1
  29       26       27 1
  30       27       28 2
  31       28       29 1
  32       29       30 1
  33       30       31 1
  34       31       32 1
  35       31       33 1
  36       31       34 1
  37       28       35 1
  38       35       36 1
  39       36       26 2
  40        1       37 1
  41        1       38 1
  42        1       39 1
  43        3       40 1
  44        3       41 1
  45        6       42 1
  46        8       43 1
  47        8       44 1
  48        8       45 1
  49        9       46 1
  50        9       47 1
  51        9       48 1
  52       10       49 1
  53       10       50 1
  54       10       51 1
  55       13       52 1
  56       16       53 1
  57       19       54 1
  58       20       55 1
  59       21       56 1
  60       22       57 1
  61       25       58 1
  62       25       59 1
  63       27       60 1
  64       29       61 1
  65       29       62 1
  66       32       63 1
  67       32       64 1
  68       32       65 1
  69       33       66 1
  70       33       67 1
  71       33       68 1
  72       34       69 1
  73       34       70 1
  74       34       71 1

@<TRIPOS>MOLECULE

  71   74
SMALL
USER_CHARGES
@<TRIPOS>ATOM
   1 C1          -2.1447    -0.6040    -0.7527 C.3          1    LIG   0.0000
   2 N2          -0.9412    -0.8879     0.0421 N.pl3        1    LIG   0.0000
   3 C3          -0.8715    -2.1070     0.8606 C.3          1    LIG   0.0000
   4 C4           0.2988    -2.9605     0.3998 C.2          1    LIG   0.0000
   5 O5           0.5378    -3.0691    -0.7711 O.2          1    LIG   0.0000
   6 N6           1.0807    -3.6057     1.3213 N.am         1    LIG   0.0000
   7 C7           2.4996    -3.8591     1.0326 C.3          1    LIG   0.0000
   8 C8           2.6236    -5.0766     0.1311 C.3          1    LIG   0.0000
   9 C9           3.0987    -2.6489     0.3349 C.3          1    LIG   0.0000
  10 C10          3.2437    -4.1139     2.3333 C.3          1    LIG   0.0000
  11 C11          0.1399     0.0036     0.0195 C.2          1    LIG   0.0000
  12 N12          1.3510    -0.3507    -0.0042 N.2          1    LIG   0.0000
  13 N13          2.1402     0.7395    -0.0216 N.pl3        1    LIG   0.0000
  14 C14          1.3315     1.8610    -0.0129 C.2          1    LIG   0.0000
  15 C15          1.7164     3.1268    -0.0303 C.2          1    LIG   0.0000
  16 C16          3.0437     3.6424     0.2205 C.2          1    LIG   0.0000
  17 N17          3.0192     4.9056     0.1247 N.2          1    LIG   0.0000
  18 C18          1.7370     5.3817    -0.1819 C.ar         1    LIG   0.0000
  19 C19          1.2525     6.6726    -0.3661 C.ar         1    LIG   0.0000
  20 C20         -0.0918     6.8623    -0.6702 C.ar         1    LIG   0.0000
  21 C21         -0.9432     5.7685    -0.7899 C.ar         1    LIG   0.0000
  22 C22         -0.4304     4.4896    -0.6002 C.ar         1    LIG   0.0000
  23 C23          0.9133     4.2926    -0.2957 C.ar         1    LIG   0.0000
  24 N24          0.0213     1.3881     0.0183 N.pl3        1    LIG   0.0000
  25 C25         -1.2143     2.1828     0.0446 C.3          1    LIG   0.0000
  26 C26         -1.5382     2.6626    -1.3611 C.2          1    LIG   0.0000
  27 C27         -2.3240     1.9970    -2.3224 C.2          1    LIG   0.0000
  28 C28         -2.3141     2.8228    -3.4016 C.2          1    LIG   0.0000
  29 C29         -3.0201     2.5662    -4.7229 C.3          1    LIG   0.0000
  30 O30         -4.3332     3.1041    -4.6701 O.3          1    LIG   0.0000
  31 C31         -5.3117     2.1931    -4.1918 C.3          1    LIG   0.0000
  32 C32         -5.3612     0.9778    -5.1035 C.3          1    LIG   0.0000
  33 C33         -4.9498     1.7546    -2.7822 C.3          1    LIG   0.0000
  34 C34         -6.6718     2.8716    -4.1778 C.3          1    LIG   0.0000
  35 O35         -1.5938     3.8782    -3.1099 O.2          1    LIG   0.0000
  36 N36         -1.1459     3.7772    -1.9241 N.2          1    LIG   0.0000
  37 H           -2.8117    -1.3373    -0.6211 H            1    LIG   0.0000
  38 H           -2.5419     0.2649    -0.4574 H            1    LIG   0.0000
  39 H           -1.8992    -0.5465    -1.7204 H            1    LIG   0.0000
  40 H           -1.7213    -2.6246     0.7607 H            1    LIG   0.0000
  41 H           -0.7443    -1.8571     1.8205 H            1    LIG   0.0000
  42 H            0.6862    -3.9043     2.1903 H            1    LIG   0.0000
  43 H            3.5889    -5.2490    -0.0653 H            1    LIG   0.0000
  44 H            2.2295    -5.8728     0.5901 H            1    LIG   0.0000
  45 H            2.1341    -4.9090    -0.7247 H            1    LIG   0.0000
  46 H            4.0639    -2.8213     0.1385 H            1    LIG   0.0000
  47 H            2.6092    -2.4813    -0.5209 H            1    LIG   0.0000
  48 H            3.0171    -1.8479     0.9280 H            1    LIG   0.0000
  49 H            4.2089    -4.2863     2.1369 H            1    LIG   0.0000
  50 H            3.1621    -3.3130     2.9264 H            1    LIG   0.0000
  51 H            2.8495    -4.9101     2.7923 H            1    LIG   0.0000
  52 H            3.1401     0.7386    -0.0381 H            1    LIG   0.0000
  53 H            3.8502     3.0914     0.4347 H            1    LIG   0.0000
  54 H            1.8656     7.4580    -0.2805 H            1    LIG   0.0000
  55 H           -0.4471     7.7875    -0.8032 H            1    LIG   0.0000
  56 H           -1.9100     5.8999    -1.0091 H            1    LIG   0.0000
  57 H           -1.0369     3.6990    -0.6839 H            1    LIG   0.0000
  58 H           -1.0902     2.9721     0.6459 H            1    LIG   0.0000
  59 H           -1.9662     1.6188     0.3858 H            1    LIG   0.0000
  60 H           -2.7856     1.1146    -2.2311 H            1    LIG   0.0000
  61 H           -2.5102     3.0036    -5.4636 H            1    LIG   0.0000
  62 H           -3.0697     1.5813    -4.8885 H            1    LIG   0.0000
  63 H           -6.0503     0.3362    -4.7666 H            1    LIG   0.0000
  64 H           -5.5993     1.2663    -6.0309 H            1    LIG   0.0000
  65 H           -4.4664     0.5314    -5.1126 H            1    LIG   0.0000
  66 H           -5.6389     1.1131    -2.4453 H            1    LIG   0.0000
  67 H           -4.0550     1.3083    -2.7914 H            1    LIG   0.0000
  68 H           -4.9173     2.5542    -2.1824 H            1    LIG   0.0000
  69 H           -7.3610     2.2300    -3.8410 H            1    LIG   0.0000
  70 H           -6.6393     3.6711    -3.5781 H            1    LIG   0.0000
  71 H           -6.9100     3.1601    -5.1052 H            1    LIG   0.0000
@<TRIPOS>BOND
   1        1        2 1
   2        2        3 1
   3        3        4 1
   4        4        5 2
   5        4        6 am
   6        6        7 1
   7        7        8 1
   8        7        9 1
   9        7       10 1
  10        2       11 1
  11       11       12 2
  12       12       13 1
  13       13       14 1
  14       14       15 2
  15       15       16 1
  16       16       17 2
  17       17       18 1
  18       18       19 ar
  19       19       20 ar
  20       20       21 ar
  21       21       22 ar
  22       22       23 ar
  23       23       18 ar
  24       23       15 1
  25       14       24 1
  26       24       11 1
  27       24       25 1
  28       25       26 1
  29       26       27 1
  30       27       28 2
  31       28       29 1
  32       29       30 1
  33       30       31 1
  34       31       32 1
  35       31       33 1
  36       31       34 1
  37       28       35 1
  38       35       36 1
  39       36       26 2
  40        1       37 1
  41        1       38 1
  42        1       39 1
  43        3       40 1
  44        3       41 1
  45        6       42 1
  46        8       43 1
  47        8       44 1
  48        8       45 1
  49        9       46 1
  50        9       47 1
  51        9       48 1
  52       10       49 1
  53       10       50 1
  54       10       51 1
  55       13       52 1
  56       16       53 1
  57       19       54 1
  58       20       55 1
  59       21       56 1
  60       22       57 1
  61       25       58 1
  62       25       59 1
  63       27       60 1
  64       29       61 1
  65       29       62 1
  66       32       63 1
  67       32       64 1
  68       32       65 1
  69       33       66 1
  70       33       67 1
  71       33       68 1
  72       34       69 1
  73       34       70 1
  74       34       71 1

@<TRIPOS>MOLECULE

  71   74
SMALL
USER_CHARGES
@<TRIPOS>ATOM
   1 C1          -2.1447    -0.6040    -0.7527 C.3          1    LIG   0.0000
   2 N2          -0.9412    -0.8879     0.0421 N.pl3        1    LIG   0.0000
   3 C3          -0.8715    -2.1070     0.8606 C.3          1    LIG   0.0000
   4 C4          -1.4116    -1.8151     2.2511 C.2          1    LIG   0.0000
   5 O5          -2.3596    -2.4225     2.6663 O.2          1    LIG   0.0000
   6 N6          -0.8160    -0.8587     3.0305 N.am         1    LIG   0.0000
   7 C7          -1.3382    -0.5765     4.3753 C.3          1    LIG   0.0000
   8 C8          -2.7836    -0.1177     4.2715 C.3          1    LIG   0.0000
   9 C9          -1.2662    -1.8370     5.2217 C.3          1    LIG   0.0000
  10 C10         -0.5049     0.5172     5.0233 C.3          1    LIG   0.0000
  11 C11          0.1399     0.0036     0.0195 C.2          1    LIG   0.0000
  12 N12          1.3510    -0.3507    -0.0042 N.2          1    LIG   0.0000
  13 N13          2.1402     0.7395    -0.0216 N.pl3        1    LIG   0.0000
  14 C14          1.3315     1.8610    -0.0129 C.2          1    LIG   0.0000
  15 C15          1.7164     3.1268    -0.0303 C.2          1    LIG   0.0000
  16 C16          3.0437     3.6424     0.2205 C.2          1    LIG   0.0000
  17 N17          3.0192     4.9056     0.1247 N.2          1    LIG   0.0000
  18 C18          1.7370     5.3817    -0.1819 C.ar         1    LIG   0.0000
  19 C19          1.2525     6.6726    -0.3661 C.ar         1    LIG   0.0000
  20 C20         -0.0918     6.8623    -0.6702 C.ar         1    LIG   0.0000
  21 C21         -0.9432     5.7685    -0.7899 C.ar         1    LIG   0.0000
  22 C22         -0.4304     4.4896    -0.6002 C.ar         1    LIG   0.0000
  23 C23          0.9133     4.2926    -0.2957 C.ar         1    LIG   0.0000
  24 N24          0.0213     1.3881     0.0183 N.pl3        1    LIG   0.0000
  25 C25         -1.2143     2.1828     0.0446 C.3          1    LIG   0.0000
  26 C26         -1.5382     2.6626    -1.3611 C.2          1    LIG   0.0000
  27 C27         -2.3240     1.9970    -2.3224 C.2          1    LIG   0.0000
  28 C28         -2.3141     2.8228    -3.4016 C.2          1    LIG   0.0000
  29 C29         -3.0201     2.5662    -4.7229 C.3          1    LIG   0.0000
  30 O30         -4.3332     3.1041    -4.6701 O.3          1    LIG   0.0000
  31 C31         -5.3117     2.1931    -4.1918 C.3          1    LIG   0.0000
  32 C32         -5.3612     0.9778    -5.1035 C.3          1    LIG   0.0000
  33 C33         -4.9498     1.7546    -2.7822 C.3          1    LIG   0.0000
  34 C34         -6.6718     2.8716    -4.1778 C.3          1    LIG   0.0000
  35 O35         -1.5938     3.8782    -3.1099 O.2          1    LIG   0.0000
  36 N36         -1.1459     3.7772    -1.9241 N.2          1    LIG   0.0000
  37 H           -2.8117    -1.3373    -0.6211 H            1    LIG   0.0000
  38 H           -2.5419     0.2649    -0.4574 H            1    LIG   0.0000
  39 H           -1.8992    -0.5465    -1.7204 H            1    LIG   0.0000
  40 H            0.0794    -2.4088     0.9289 H            1    LIG   0.0000
  41 H           -1.4198    -2.8265     0.4343 H            1    LIG   0.0000
  42 H           -0.0259    -0.3526     2.6846 H            1    LIG   0.0000
  43 H           -3.1389     0.0743     5.1863 H            1    LIG   0.0000
  44 H           -2.8310     0.7115     3.7147 H            1    LIG   0.0000
  45 H           -3.3319    -0.8372     3.8452 H            1    LIG   0.0000
  46 H           -1.6215    -1.6450     6.1365 H            1    LIG   0.0000
  47 H           -1.8145    -2.5565     4.7954 H            1    LIG   0.0000
  48 H           -0.3153    -2.1388     5.2899 H            1    LIG   0.0000
  49 H           -0.8601     0.7092     5.9381 H            1    LIG   0.0000
  50 H            0.4461     0.2154     5.0916 H            1    LIG   0.0000
  51 H           -0.5522     1.3464     4.4665 H            1    LIG   0.0000
  52 H            3.1401     0.7386    -0.0381 H            1    LIG   0.0000
  53 H            3.8502     3.0914     0.4347 H            1    LIG   0.0000
  54 H            1.8656     7.4580    -0.2805 H            1    LIG   0.0000
  55 H           -0.4471     7.7875    -0.8032 H            1    LIG   0.0000
  56 H           -1.9100     5.8999    -1.0091 H            1    LIG   0.0000
  57 H           -1.0369     3.6990    -0.6839 H            1    LIG   0.0000
  58 H           -1.0902     2.9721     0.6459 H            1    LIG   0.0000
  59 H           -1.9662     1.6188     0.3858 H            1    LIG   0.0000
  60 H           -2.7856     1.1146    -2.2311 H            1    LIG   0.0000
  61 H           -2.5102     3.0036    -5.4636 H            1    LIG   0.0000
  62 H           -3.0697     1.5813    -4.8885 H            1    LIG   0.0000
  63 H           -6.0503     0.3362    -4.7666 H            1    LIG   0.0000
  64 H           -5.5993     1.2663    -6.0309 H            1    LIG   0.0000
  65 H           -4.4664     0.5314    -5.1126 H            1    LIG   0.0000
  66 H           -5.6389     1.1131    -2.4453 H            1    LIG   0.0000
  67 H           -4.0550     1.3083    -2.7914 H            1    LIG   0.0000
  68 H           -4.9173     2.5542    -2.1824 H            1    LIG   0.0000
  69 H           -7.3610     2.2300    -3.8410 H            1    LIG   0.0000
  70 H           -6.6393     3.6711    -3.5781 H            1    LIG   0.0000
  71 H           -6.9100     3.1601    -5.1052 H            1    LIG   0.0000
@<TRIPOS>BOND
   1        1        2 1
   2        2        3 1
   3        3        4 1
   4        4        5 2
   5        4        6 am
   6        6        7 1
   7        7        8 1
   8        7        9 1
   9        7       10 1
  10        2       11 1
  11       11       12 2
  12       12       13 1
  13       13       14 1
  14       14       15 2
  15       15       16 1
  16       16       17 2
  17       17       18 1
  18       18       19 ar
  19       19       20 ar
  20       20       21 ar
  21       21       22 ar
  22       22       23 ar
  23       23       18 ar
  24       23       15 1
  25       14       24 1
  26       24       11 1
  27       24       25 1
  28       25       26 1
  29       26       27 1
  30       27       28 2
  31       28       29 1
  32       29       30 1
  33       30       31 1
  34       31       32 1
  35       31       33 1
  36       31       34 1
  37       28       35 1
  38       35       36 1
  39       36       26 2
  40        1       37 1
  41        1       38 1
  42        1       39 1
  43        3       40 1
  44        3       41 1
  45        6       42 1
  46        8       43 1
  47        8       44 1
  48        8       45 1
  49        9       46 1
  50        9       47 1
  51        9       48 1
  52       10       49 1
  53       10       50 1
  54       10       51 1
  55       13       52 1
  56       16       53 1
  57       19       54 1
  58       20       55 1
  59       21       56 1
  60       22       57 1
  61       25       58 1
  62       25       59 1
  63       27       60 1
  64       29       61 1
  65       29       62 1
  66       32       63 1
  67       32       64 1
  68       32       65 1
  69       33       66 1
  70       33       67 1
  71       33       68 1
  72       34       69 1
  73       34       70 1
  74       34       71 1

@<TRIPOS>MOLECULE

  71   74
SMALL
USER_CHARGES
@<TRIPOS>ATOM
   1 C1          -2.1121    -0.6021     0.8836 C.3          1    LIG   0.0000
   2 N2          -0.9412    -0.8879     0.0421 N.pl3        1    LIG   0.0000
   3 C3          -0.9041    -2.1089    -0.7757 C.3          1    LIG   0.0000
   4 C4          -1.0188    -1.7381    -2.2453 C.2          1    LIG   0.0000
   5 O5          -1.9879    -1.1524    -2.6425 O.2          1    LIG   0.0000
   6 N6          -0.0157    -2.0725    -3.1164 N.am         1    LIG   0.0000
   7 C7           0.2478    -1.2304    -4.2921 C.3          1    LIG   0.0000
   8 C8          -0.7577    -1.5562    -5.3844 C.3          1    LIG   0.0000
   9 C9           0.1193     0.2340    -3.9055 C.3          1    LIG   0.0000
  10 C10          1.6545    -1.4981    -4.8021 C.3          1    LIG   0.0000
  11 C11          0.1399     0.0036     0.0195 C.2          1    LIG   0.0000
  12 N12          1.3510    -0.3507    -0.0042 N.2          1    LIG   0.0000
  13 N13          2.1402     0.7395    -0.0216 N.pl3        1    LIG   0.0000
  14 C14          1.3315     1.8610    -0.0129 C.2          1    LIG   0.0000
  15 C15          1.7164     3.1268    -0.0303 C.2          1    LIG   0.0000
  16 C16          3.0437     3.6424     0.2205 C.2          1    LIG   0.0000
  17 N17          3.0192     4.9056     0.1247 N.2          1    LIG   0.0000
  18 C18          1.7370     5.3817    -0.1819 C.ar         1    LIG   0.0000
  19 C19          1.2525     6.6726    -0.3661 C.ar         1    LIG   0.0000
  20 C20         -0.0918     6.8623    -0.6702 C.ar         1    LIG   0.0000
  21 C21         -0.9432     5.7685    -0.7899 C.ar         1    LIG   0.0000
  22 C22         -0.4304     4.4896    -0.6002 C.ar         1    LIG   0.0000
  23 C23          0.9133     4.2926    -0.2957 C.ar         1    LIG   0.0000
  24 N24          0.0213     1.3881     0.0183 N.pl3        1    LIG   0.0000
  25 C25         -1.2143     2.1828     0.0446 C.3          1    LIG   0.0000
  26 C26         -1.5382     2.6626    -1.3611 C.2          1    LIG   0.0000
  27 C27         -2.3240     1.9970    -2.3224 C.2          1    LIG   0.0000
  28 C28         -2.3141     2.8228    -3.4016 C.2          1    LIG   0.0000
  29 C29         -3.0201     2.5662    -4.7229 C.3          1    LIG   0.0000
  30 O30         -4.3332     3.1041    -4.6701 O.3          1    LIG   0.0000
  31 C31         -5.3117     2.1931    -4.1918 C.3          1    LIG   0.0000
  32 C32         -5.3612     0.9778    -5.1035 C.3          1    LIG   0.0000
  33 C33         -4.9498     1.7546    -2.7822 C.3          1    LIG   0.0000
  34 C34         -6.6718     2.8716    -4.1778 C.3          1    LIG   0.0000
  35 O35         -1.5938     3.8782    -3.1099 O.2          1    LIG   0.0000
  36 N36         -1.1459     3.7772    -1.9241 N.2          1    LIG   0.0000
  37 H           -2.7838    -1.3357     0.7803 H            1    LIG   0.0000
  38 H           -1.8283    -0.5423     1.8406 H            1    LIG   0.0000
  39 H           -2.5208     0.2661     0.6022 H            1    LIG   0.0000
  40 H           -1.6668    -2.7036    -0.5215 H            1    LIG   0.0000
  41 H           -0.0408    -2.5887    -0.6193 H            1    LIG   0.0000
  42 H            0.5372    -2.8894    -2.9525 H            1    LIG   0.0000
  43 H           -0.5784    -0.9833    -6.1842 H            1    LIG   0.0000
  44 H           -0.6731    -2.5196    -5.6387 H            1    LIG   0.0000
  45 H           -1.6831    -1.3800    -5.0489 H            1    LIG   0.0000
  46 H            0.2986     0.8069    -4.7053 H            1    LIG   0.0000
  47 H           -0.8061     0.4102    -3.5700 H            1    LIG   0.0000
  48 H            0.7808     0.4484    -3.1869 H            1    LIG   0.0000
  49 H            1.8338    -0.9253    -5.6019 H            1    LIG   0.0000
  50 H            2.3160    -1.2838    -4.0835 H            1    LIG   0.0000
  51 H            1.7391    -2.4615    -5.0564 H            1    LIG   0.0000
  52 H            3.1401     0.7386    -0.0381 H            1    LIG   0.0000
  53 H            3.8502     3.0914     0.4347 H            1    LIG   0.0000
  54 H            1.8656     7.4580    -0.2805 H            1    LIG   0.0000
  55 H           -0.4471     7.7875    -0.8032 H            1    LIG   0.0000
  56 H           -1.9100     5.8999    -1.0091 H            1    LIG   0.0000
  57 H           -1.0369     3.6990    -0.6839 H            1    LIG   0.0000
  58 H           -1.0902     2.9721     0.6459 H            1    LIG   0.0000
  59 H           -1.9662     1.6188     0.3858 H            1    LIG   0.0000
  60 H           -2.7856     1.1146    -2.2311 H            1    LIG   0.0000
  61 H           -2.5102     3.0036    -5.4636 H            1    LIG   0.0000
  62 H           -3.0697     1.5813    -4.8885 H            1    LIG   0.0000
  63 H           -6.0503     0.3362    -4.7666 H            1    LIG   0.0000
  64 H           -5.5993     1.2663    -6.0309 H            1    LIG   0.0000
  65 H           -4.4664     0.5314    -5.1126 H            1    LIG   0.0000
  66 H           -5.6389     1.1131    -2.4453 H            1    LIG   0.0000
  67 H           -4.0550     1.3083    -2.7914 H            1    LIG   0.0000
  68 H           -4.9173     2.5542    -2.1824 H            1    LIG   0.0000
  69 H           -7.3610     2.2300    -3.8410 H            1    LIG   0.0000
  70 H           -6.6393     3.6711    -3.5781 H            1    LIG   0.0000
  71 H           -6.9100     3.1601    -5.1052 H            1    LIG   0.0000
@<TRIPOS>BOND
   1        1        2 1
   2        2        3 1
   3        3        4 1
   4        4        5 2
   5        4        6 am
   6        6        7 1
   7        7        8 1
   8        7        9 1
   9        7       10 1
  10        2       11 1
  11       11       12 2
  12       12       13 1
  13       13       14 1
  14       14       15 2
  15       15       16 1
  16       16       17 2
  17       17       18 1
  18       18       19 ar
  19       19       20 ar
  20       20       21 ar
  21       21       22 ar
  22       22       23 ar
  23       23       18 ar
  24       23       15 1
  25       14       24 1
  26       24       11 1
  27       24       25 1
  28       25       26 1
  29       26       27 1
  30       27       28 2
  31       28       29 1
  32       29       30 1
  33       30       31 1
  34       31       32 1
  35       31       33 1
  36       31       34 1
  37       28       35 1
  38       35       36 1
  39       36       26 2
  40        1       37 1
  41        1       38 1
  42        1       39 1
  43        3       40 1
  44        3       41 1
  45        6       42 1
  46        8       43 1
  47        8       44 1
  48        8       45 1
  49        9       46 1
  50        9       47 1
  51        9       48 1
  52       10       49 1
  53       10       50 1
  54       10       51 1
  55       13       52 1
  56       16       53 1
  57       19       54 1
  58       20       55 1
  59       21       56 1
  60       22       57 1
  61       25       58 1
  62       25       59 1
  63       27       60 1
  64       29       61 1
  65       29       62 1
  66       32       63 1
  67       32       64 1
  68       32       65 1
  69       33       66 1
  70       33       67 1
  71       33       68 1
  72       34       69 1
  73       34       70 1
  74       34       71 1

@<TRIPOS>MOLECULE

  71   74
SMALL
USER_CHARGES
@<TRIPOS>ATOM
   1 C1          -0.6984    -2.3377     0.0390 C.3          1    LIG   0.0000
   2 N2          -0.9412    -0.8879     0.0421 N.pl3        1    LIG   0.0000
   3 C3          -2.3179    -0.3733     0.0689 C.3          1    LIG   0.0000
   4 C4          -3.0184    -0.8656     1.3248 C.2          1    LIG   0.0000
   5 O5          -4.1580    -0.5550     1.5371 O.2          1    LIG   0.0000
   6 N6          -2.3490    -1.6639     2.2144 N.am         1    LIG   0.0000
   7 C7          -3.1003    -2.4907     3.1698 C.3          1    LIG   0.0000
   8 C8          -3.5510    -1.6305     4.3392 C.3          1    LIG   0.0000
   9 C9          -4.3171    -3.0843     2.4789 C.3          1    LIG   0.0000
  10 C10         -2.2097    -3.6121     3.6794 C.3          1    LIG   0.0000
  11 C11          0.1399     0.0036     0.0195 C.2          1    LIG   0.0000
  12 N12          1.3510    -0.3507    -0.0042 N.2          1    LIG   0.0000
  13 N13          2.1402     0.7395    -0.0216 N.pl3        1    LIG   0.0000
  14 C14          1.3315     1.8610    -0.0129 C.2          1    LIG   0.0000
  15 C15          1.7164     3.1268    -0.0303 C.2          1    LIG   0.0000
  16 C16          3.0437     3.6424     0.2205 C.2          1    LIG   0.0000
  17 N17          3.0192     4.9056     0.1247 N.2          1    LIG   0.0000
  18 C18          1.7370     5.3817    -0.1819 C.ar         1    LIG   0.0000
  19 C19          1.2525     6.6726    -0.3661 C.ar         1    LIG   0.0000
  20 C20         -0.0918     6.8623    -0.6702 C.ar         1    LIG   0.0000
  21 C21         -0.9432     5.7685    -0.7899 C.ar         1    LIG   0.0000
  22 C22         -0.4304     4.4896    -0.6002 C.ar         1    LIG   0.0000
  23 C23          0.9133     4.2926    -0.2957 C.ar         1    LIG   0.0000
  24 N24          0.0213     1.3881     0.0183 N.pl3        1    LIG   0.0000
  25 C25         -1.2143     2.1828     0.0446 C.3          1    LIG   0.0000
  26 C26         -1.5382     2.6626    -1.3611 C.2          1    LIG   0.0000
  27 C27         -2.3240     1.9970    -2.3224 C.2          1    LIG   0.0000
  28 C28         -2.3141     2.8228    -3.4016 C.2          1    LIG   0.0000
  29 C29         -3.0201     2.5662    -4.7229 C.3          1    LIG   0.0000
  30 O30         -4.3332     3.1041    -4.6701 O.3          1    LIG   0.0000
  31 C31         -5.3117     2.1931    -4.1918 C.3          1    LIG   0.0000
  32 C32         -4.9042     0.7746    -4.5556 C.3          1    LIG   0.0000
  33 C33         -5.4234     2.3165    -2.6810 C.3          1    LIG   0.0000
  34 C34         -6.6552     2.5129    -4.8269 C.3          1    LIG   0.0000
  35 O35         -1.5938     3.8782    -3.1099 O.2          1    LIG   0.0000
  36 N36         -1.1459     3.7772    -1.9241 N.2          1    LIG   0.0000
  37 H           -1.5730    -2.8222     0.0570 H            1    LIG   0.0000
  38 H           -0.1948    -2.5896    -0.7874 H            1    LIG   0.0000
  39 H           -0.1622    -2.5877     0.8452 H            1    LIG   0.0000
  40 H           -2.8113    -0.6991    -0.7375 H            1    LIG   0.0000
  41 H           -2.3000     0.6266     0.0674 H            1    LIG   0.0000
  42 H           -1.3492    -1.6843     2.2137 H            1    LIG   0.0000
  43 H           -4.0621    -2.1929     4.9892 H            1    LIG   0.0000
  44 H           -2.7504    -1.2400     4.7938 H            1    LIG   0.0000
  45 H           -4.1369    -0.8927     4.0040 H            1    LIG   0.0000
  46 H           -4.8282    -3.6467     3.1289 H            1    LIG   0.0000
  47 H           -4.9030    -2.3465     2.1437 H            1    LIG   0.0000
  48 H           -4.0206    -3.6501     1.7096 H            1    LIG   0.0000
  49 H           -2.7208    -4.1745     4.3294 H            1    LIG   0.0000
  50 H           -1.9132    -4.1780     2.9101 H            1    LIG   0.0000
  51 H           -1.4091    -3.2215     4.1339 H            1    LIG   0.0000
  52 H            3.1401     0.7386    -0.0381 H            1    LIG   0.0000
  53 H            3.8502     3.0914     0.4347 H            1    LIG   0.0000
  54 H            1.8656     7.4580    -0.2805 H            1    LIG   0.0000
  55 H           -0.4471     7.7875    -0.8032 H            1    LIG   0.0000
  56 H           -1.9100     5.8999    -1.0091 H            1    LIG   0.0000
  57 H           -1.0369     3.6990    -0.6839 H            1    LIG   0.0000
  58 H           -1.0902     2.9721     0.6459 H            1    LIG   0.0000
  59 H           -1.9662     1.6188     0.3858 H            1    LIG   0.0000
  60 H           -2.7856     1.1146    -2.2311 H            1    LIG   0.0000
  61 H           -2.5102     3.0036    -5.4636 H            1    LIG   0.0000
  62 H           -3.0697     1.5813    -4.8885 H            1    LIG   0.0000
  63 H           -5.5933     0.1331    -4.2187 H            1    LIG   0.0000
  64 H           -4.8307     0.6934    -5.5495 H            1    LIG   0.0000
  65 H           -4.0204     0.5642    -4.1377 H            1    LIG   0.0000
  66 H           -6.1125     1.6749    -2.3441 H            1    LIG   0.0000
  67 H           -4.5396     2.1061    -2.2631 H            1    LIG   0.0000
  68 H           -5.6915     3.2497    -2.4417 H            1    LIG   0.0000
  69 H           -7.3443     1.8713    -4.4901 H            1    LIG   0.0000
  70 H           -6.9233     3.4461    -4.5877 H            1    LIG   0.0000
  71 H           -6.5817     2.4317    -5.8209 H            1    LIG   0.0000
@<TRIPOS>BOND
   1        1        2 1
   2        2        3 1
   3        3        4 1
   4        4        5 2
   5        4        6 am
   6        6        7 1
   7        7        8 1
   8        7        9 1
   9        7       10 1
  10        2       11 1
  11       11       12 2
  12       12       13 1
  13       13       14 1
  14       14       15 2
  15       15       16 1
  16       16       17 2
  17       17       18 1
  18       18       19 ar
  19       19       20 ar
  20       20       21 ar
  21       21       22 ar
  22       22       23 ar
  23       23       18 ar
  24       23       15 1
  25       14       24 1
  26       24       11 1
  27       24       25 1
  28       25       26 1
  29       26       27 1
  30       27       28 2
  31       28       29 1
  32       29       30 1
  33       30       31 1
  34       31       32 1
  35       31       33 1
  36       31       34 1
  37       28       35 1
  38       35       36 1
  39       36       26 2
  40        1       37 1
  41        1       38 1
  42        1       39 1
  43        3       40 1
  44        3       41 1
  45        6       42 1
  46        8       43 1
  47        8       44 1
  48        8       45 1
  49        9       46 1
  50        9       47 1
  51        9       48 1
  52       10       49 1
  53       10       50 1
  54       10       51 1
  55       13       52 1
  56       16       53 1
  57       19       54 1
  58       20       55 1
  59       21       56 1
  60       22       57 1
  61       25       58 1
  62       25       59 1
  63       27       60 1
  64       29       61 1
  65       29       62 1
  66       32       63 1
  67       32       64 1
  68       32       65 1
  69       33       66 1
  70       33       67 1
  71       33       68 1
  72       34       69 1
  73       34       70 1
  74       34       71 1

