@<TRIPOS>MOLECULE
*****
 71 74 0 0 0
SMALL
USER_CHARGES

@<TRIPOS>ATOM
      1 C1         -0.6984   -2.3377    0.0390 C.3     1  LIG1        0.0000
      2 N2         -0.9412   -0.8879    0.0421 N.pl3   1  LIG1        0.0000
      3 C3         -2.3179   -0.3733    0.0689 C.3     1  LIG1        0.0000
      4 C4         -2.7638   -0.1942    1.5110 C.2     1  LIG1        0.0000
      5 O5         -2.0153   -0.4661    2.4086 O.2     1  LIG1        0.0000
      6 N6         -4.0203    0.2777    1.7858 N.am    1  LIG1        0.0000
      7 C7         -4.4516    0.4508    3.1804 C.3     1  LIG1        0.0000
      8 C8         -4.3972   -0.8882    3.8976 C.3     1  LIG1        0.0000
      9 C9         -3.5284    1.4368    3.8776 C.3     1  LIG1        0.0000
     10 C10        -5.8751    0.9830    3.2082 C.3     1  LIG1        0.0000
     11 C11         0.1399    0.0036    0.0195 C.cat   1  LIG1        0.0000
     12 N12         1.3510   -0.3507   -0.0042 N.2     1  LIG1        0.0000
     13 N13         2.1402    0.7395   -0.0216 N.pl3   1  LIG1        0.0000
     14 C14         1.3315    1.8610   -0.0129 C.2     1  LIG1        0.0000
     15 C15         1.7164    3.1268   -0.0303 C.2     1  LIG1        0.0000
     16 C16         3.0437    3.6424    0.2205 C.2     1  LIG1        0.0000
     17 N17         3.0192    4.9056    0.1247 N.2     1  LIG1        0.0000
     18 C18         1.7370    5.3817   -0.1819 C.3     1  LIG1        0.0000
     19 C19         1.2525    6.6726   -0.3661 C.3     1  LIG1        0.0000
     20 C20        -0.0918    6.8623   -0.6702 C.3     1  LIG1        0.0000
     21 C21        -0.9432    5.7685   -0.7899 C.3     1  LIG1        0.0000
     22 C22        -0.4304    4.4896   -0.6002 C.3     1  LIG1        0.0000
     23 C23         0.9133    4.2926   -0.2957 C.3     1  LIG1        0.0000
     24 N24         0.0213    1.3881    0.0183 N.pl3   1  LIG1        0.0000
     25 C25        -1.2143    2.1828    0.0446 C.3     1  LIG1        0.0000
     26 C26        -1.5382    2.6626   -1.3611 C.2     1  LIG1        0.0000
     27 C27        -2.3240    1.9970   -2.3224 C.2     1  LIG1        0.0000
     28 C28        -2.3141    2.8228   -3.4016 C.2     1  LIG1        0.0000
     29 C29        -3.0201    2.5662   -4.7229 C.3     1  LIG1        0.0000
     30 O30        -4.3332    3.1041   -4.6701 O.3     1  LIG1        0.0000
     31 C31        -5.1447    2.5475   -3.6465 C.3     1  LIG1        0.0000
     32 C32        -5.2820    1.0498   -3.8669 C.3     1  LIG1        0.0000
     33 C33        -4.5005    2.8035   -2.2937 C.3     1  LIG1        0.0000
     34 C34        -6.5202    3.1932   -3.6829 C.3     1  LIG1        0.0000
     35 O35        -1.5938    3.8782   -3.1099 O.2     1  LIG1        0.0000
     36 N36        -1.1459    3.7772   -1.9241 N.2     1  LIG1        0.0000
     37 H          -1.5730   -2.8222    0.0570 H       1  LIG1        0.0000
     38 H          -0.1948   -2.5896   -0.7874 H       1  LIG1        0.0000
     39 H          -0.1622   -2.5877    0.8452 H       1  LIG1        0.0000
     40 H          -2.9252   -1.0219   -0.3897 H       1  LIG1        0.0000
     41 H          -2.3536    0.5077   -0.4029 H       1  LIG1        0.0000
     42 H          -4.6440    0.5043    1.0378 H       1  LIG1        0.0000
     43 H          -4.6906   -0.7704    4.8463 H       1  LIG1        0.0000
     44 H          -5.0045   -1.5369    3.4390 H       1  LIG1        0.0000
     45 H          -3.4607   -1.2383    3.8793 H       1  LIG1        0.0000
     46 H          -3.8218    1.5546    4.8263 H       1  LIG1        0.0000
     47 H          -2.5919    1.0867    3.8593 H       1  LIG1        0.0000
     48 H          -3.5642    2.3178    3.4057 H       1  LIG1        0.0000
     49 H          -6.1685    1.1008    4.1569 H       1  LIG1        0.0000
     50 H          -5.9109    1.8640    2.7363 H       1  LIG1        0.0000
     51 H          -6.4825    0.3343    2.7495 H       1  LIG1        0.0000
     52 H           3.1401    0.7386   -0.0381 H       1  LIG1        0.0000
     53 H           3.8502    3.0914    0.4347 H       1  LIG1        0.0000
     54 H           1.8656    7.4580   -0.2805 H       1  LIG1        0.0000
     55 H          -0.4471    7.7875   -0.8032 H       1  LIG1        0.0000
     56 H          -1.9100    5.8999   -1.0091 H       1  LIG1        0.0000
     57 H          -1.0369    3.6990   -0.6839 H       1  LIG1        0.0000
     58 H          -1.0902    2.9721    0.6459 H       1  LIG1        0.0000
     59 H          -1.9662    1.6188    0.3858 H       1  LIG1        0.0000
     60 H          -2.7856    1.1146   -2.2311 H       1  LIG1        0.0000
     61 H          -2.5102    3.0036   -5.4636 H       1  LIG1        0.0000
     62 H          -3.0697    1.5813   -4.8885 H       1  LIG1        0.0000
     63 H          -5.8535    0.6578   -3.1460 H       1  LIG1        0.0000
     64 H          -5.7058    0.8814   -4.7569 H       1  LIG1        0.0000
     65 H          -4.3771    0.6250   -3.8429 H       1  LIG1        0.0000
     66 H          -5.0720    2.4115   -1.5728 H       1  LIG1        0.0000
     67 H          -3.5955    2.3787   -2.2697 H       1  LIG1        0.0000
     68 H          -4.4102    3.7888   -2.1487 H       1  LIG1        0.0000
     69 H          -7.0917    2.8012   -2.9620 H       1  LIG1        0.0000
     70 H          -6.4299    4.1785   -3.5379 H       1  LIG1        0.0000
     71 H          -6.9440    3.0247   -4.5729 H       1  LIG1        0.0000
@<TRIPOS>BOND
     1     1     2    1
     2     2     3    1
     3     3     4    1
     4     4     5    2
     5     4     6   am
     6     6     7    1
     7     7     8    1
     8     7     9    1
     9     7    10    1
    10     2    11    1
    11    11    12    2
    12    12    13    1
    13    13    14    1
    14    14    15    2
    15    15    16    1
    16    16    17    2
    17    17    18    1
    18    18    19   ar
    19    19    20   ar
    20    20    21   ar
    21    21    22   ar
    22    22    23   ar
    23    23    18   ar
    24    23    15    1
    25    14    24    1
    26    24    11    1
    27    24    25    1
    28    25    26    1
    29    26    27    1
    30    27    28    2
    31    28    29    1
    32    29    30    1
    33    30    31    1
    34    31    32    1
    35    31    33    1
    36    31    34    1
    37    28    35    1
    38    35    36    1
    39    36    26    2
    40     1    37    1
    41     1    38    1
    42     1    39    1
    43     3    40    1
    44     3    41    1
    45     6    42    1
    46     8    43    1
    47     8    44    1
    48     8    45    1
    49     9    46    1
    50     9    47    1
    51     9    48    1
    52    10    49    1
    53    10    50    1
    54    10    51    1
    55    13    52    1
    56    16    53    1
    57    19    54    1
    58    20    55    1
    59    21    56    1
    60    22    57    1
    61    25    58    1
    62    25    59    1
    63    27    60    1
    64    29    61    1
    65    29    62    1
    66    32    63    1
    67    32    64    1
    68    32    65    1
    69    33    66    1
    70    33    67    1
    71    33    68    1
    72    34    69    1
    73    34    70    1
    74    34    71    1
