@<TRIPOS>MOLECULE

  71   74
SMALL
USER_CHARGES
@<TRIPOS>ATOM
   1 C1          -2.8396    -5.2473    -1.5071 C.3          1    LIG   0.0000
   2 C2          -2.5284    -3.9783    -0.7305 C.2          1    LIG   0.0000
   3 O3          -1.6460    -3.9738     0.0828 O.2          1    LIG   0.0000
   4 N4          -3.2553    -2.8398    -0.9589 N.am         1    LIG   0.0000
   5 C5          -2.7385    -1.5933    -0.5875 C.ar         1    LIG   0.0000
   6 C6          -3.4896    -0.4472    -0.8266 C.ar         1    LIG   0.0000
   7 C7          -2.9686     0.7872    -0.4531 C.ar         1    LIG   0.0000
   8 N8          -3.7124     1.9500    -0.6865 N.am         1    LIG   0.0000
   9 C9          -3.2078     3.1705    -0.3222 C.2          1    LIG   0.0000
  10 C10         -4.1504     4.2939     0.0776 C.3          1    LIG   0.0000
  11 O11         -2.0217     3.3526    -0.3188 O.2          1    LIG   0.0000
  12 C12         -1.7195     0.8883     0.1501 C.ar         1    LIG   0.0000
  13 C13         -0.9889    -0.2731     0.3776 C.ar         1    LIG   0.0000
  14 C14          0.3150    -0.1864     1.0049 C.2          1    LIG   0.0000
  15 O15          0.7944    -1.1539     1.5285 O.2          1    LIG   0.0000
  16 N16          1.0000     1.0000     1.0000 N.am         1    LIG   0.0000
  17 C17          2.4002     1.0000     1.0000 C.ar         1    LIG   0.0000
  18 C18          3.0910     2.2078     0.9950 C.ar         1    LIG   0.0000
  19 C19          4.4817     2.2135     0.9959 C.ar         1    LIG   0.0000
  20 C20          5.1646     1.0012     1.0009 C.ar         1    LIG   0.0000
  21 C21          6.6848     1.0002     1.0016 C.3          1    LIG   0.0000
  22 N22          7.1753     0.9945    -0.3840 N.4          1    LIG   1.0000
  23 C23          6.6509    -0.2289    -1.0129 C.3          1    LIG   0.0000
  24 C24          7.0539    -0.3338    -2.4763 C.3          1    LIG   0.0000
  25 N25          6.8411     0.9376    -3.1859 N.pl3        1    LIG   0.0000
  26 C26          6.4712     0.8994    -4.5357 C.ar         1    LIG   0.0000
  27 C27          6.3145    -0.3292    -5.1691 C.ar         1    LIG   0.0000
  28 C28          5.9471    -0.3549    -6.5103 C.ar         1    LIG   0.0000
  29 C29          5.7368     0.8260    -7.2143 C.ar         1    LIG   0.0000
  30 C30          5.8990     2.0433    -6.5609 C.ar         1    LIG   0.0000
  31 C31          5.6720     3.3394    -7.3218 C.3          1    LIG   0.0000
  32 C32          6.2664     2.0925    -5.2204 C.ar         1    LIG   0.0000
  33 C33          6.9952     2.2437    -2.5246 C.3          1    LIG   0.0000
  34 C34          6.6134     2.1799    -1.0529 C.3          1    LIG   0.0000
  35 C35          4.4740    -0.2060     1.0043 C.ar         1    LIG   0.0000
  36 C36          3.0832    -0.2118     1.0041 C.ar         1    LIG   0.0000
  37 C37         -1.4866    -1.5200     0.0141 C.ar         1    LIG   0.0000
  38 H            8.1749     1.0096    -0.4097 H            1    LIG   0.0000
  39 H           -3.5969    -5.0753    -2.1371 H            1    LIG   0.0000
  40 H           -2.0317    -5.5274    -2.0257 H            1    LIG   0.0000
  41 H           -3.0949    -5.9742    -0.8696 H            1    LIG   0.0000
  42 H           -4.1551    -2.8993    -1.3911 H            1    LIG   0.0000
  43 H           -4.3888    -0.5097    -1.2597 H            1    LIG   0.0000
  44 H           -4.6119     1.8897    -1.1191 H            1    LIG   0.0000
  45 H           -5.0956     3.9727     0.0190 H            1    LIG   0.0000
  46 H           -3.9522     4.5772     1.0159 H            1    LIG   0.0000
  47 H           -4.0235     5.0708    -0.5390 H            1    LIG   0.0000
  48 H           -1.3532     1.7801     0.4156 H            1    LIG   0.0000
  49 H            0.5000     1.8660     0.9964 H            1    LIG   0.0000
  50 H            2.5875     3.0718     0.9908 H            1    LIG   0.0000
  51 H            4.9845     3.0779     0.9929 H            1    LIG   0.0000
  52 H            7.0184     1.8183     1.4699 H            1    LIG   0.0000
  53 H            7.0174     0.1854     1.4763 H            1    LIG   0.0000
  54 H            5.6527    -0.2208    -0.9525 H            1    LIG   0.0000
  55 H            7.0081    -1.0233    -0.5217 H            1    LIG   0.0000
  56 H            8.0221    -0.5781    -2.5302 H            1    LIG   0.0000
  57 H            6.5056    -1.0463    -2.9143 H            1    LIG   0.0000
  58 H            6.4637    -1.1814    -4.6676 H            1    LIG   0.0000
  59 H            5.8328    -1.2333    -6.9742 H            1    LIG   0.0000
  60 H            5.4721     0.8003    -8.1783 H            1    LIG   0.0000
  61 H            5.4158     3.1314    -8.2657 H            1    LIG   0.0000
  62 H            4.9382     3.8588    -6.8839 H            1    LIG   0.0000
  63 H            6.5128     3.8808    -7.3162 H            1    LIG   0.0000
  64 H            6.3812     2.9710    -4.7566 H            1    LIG   0.0000
  65 H            6.4073     2.9101    -2.9831 H            1    LIG   0.0000
  66 H            7.9493     2.5338    -2.5993 H            1    LIG   0.0000
  67 H            6.9557     3.0006    -0.5954 H            1    LIG   0.0000
  68 H            5.6165     2.1488    -0.9798 H            1    LIG   0.0000
  69 H            4.9775    -1.0700     1.0069 H            1    LIG   0.0000
  70 H            2.5805    -1.0762     1.0069 H            1    LIG   0.0000
  71 H           -0.9536    -2.3493     0.1823 H            1    LIG   0.0000
@<TRIPOS>BOND
   1        1        2 1
   2        2        3 2
   3        2        4 am
   4        4        5 1
   5        5        6 ar
   6        6        7 ar
   7        7        8 1
   8        8        9 am
   9        9       10 1
  10        9       11 2
  11        7       12 ar
  12       12       13 ar
  13       13       14 1
  14       14       15 2
  15       14       16 am
  16       16       17 1
  17       17       18 ar
  18       18       19 ar
  19       19       20 ar
  20       20       21 1
  21       21       22 1
  22       22       23 1
  23       23       24 1
  24       24       25 1
  25       25       26 1
  26       26       27 ar
  27       27       28 ar
  28       28       29 ar
  29       29       30 ar
  30       30       31 1
  31       30       32 ar
  32       32       26 ar
  33       25       33 1
  34       33       34 1
  35       34       22 1
  36       20       35 ar
  37       35       36 ar
  38       36       17 ar
  39       13       37 ar
  40       37        5 ar
  41       22       38 1
  42        1       39 1
  43        1       40 1
  44        1       41 1
  45        4       42 1
  46        6       43 1
  47        8       44 1
  48       10       45 1
  49       10       46 1
  50       10       47 1
  51       12       48 1
  52       16       49 1
  53       18       50 1
  54       19       51 1
  55       21       52 1
  56       21       53 1
  57       23       54 1
  58       23       55 1
  59       24       56 1
  60       24       57 1
  61       27       58 1
  62       28       59 1
  63       29       60 1
  64       31       61 1
  65       31       62 1
  66       31       63 1
  67       32       64 1
  68       33       65 1
  69       33       66 1
  70       34       67 1
  71       34       68 1
  72       35       69 1
  73       36       70 1
  74       37       71 1

@<TRIPOS>MOLECULE

  71   74
SMALL
USER_CHARGES
@<TRIPOS>ATOM
   1 C1          -3.2462    -2.1378     2.8503 C.3          1    LIG   0.0000
   2 C2          -4.0781    -2.8196     1.7763 C.2          1    LIG   0.0000
   3 O3          -4.8289    -3.7076     2.0724 O.2          1    LIG   0.0000
   4 N4          -3.9707    -2.4203     0.4701 N.am         1    LIG   0.0000
   5 C5          -3.0950    -1.3846     0.1247 C.ar         1    LIG   0.0000
   6 C6          -3.4920    -0.4460    -0.8219 C.ar         1    LIG   0.0000
   7 C7          -2.6157     0.5805    -1.1582 C.ar         1    LIG   0.0000
   8 N8          -3.0004     1.5334    -2.1088 N.am         1    LIG   0.0000
   9 C9          -2.0935     1.9865    -3.0304 C.2          1    LIG   0.0000
  10 C10         -2.5113     3.0212    -4.0625 C.3          1    LIG   0.0000
  11 O11         -0.9695     1.5666    -3.0227 O.2          1    LIG   0.0000
  12 C12         -1.3611     0.6787    -0.5657 C.ar         1    LIG   0.0000
  13 C13         -0.9889    -0.2731     0.3776 C.ar         1    LIG   0.0000
  14 C14          0.3150    -0.1864     1.0049 C.2          1    LIG   0.0000
  15 O15          0.7944    -1.1539     1.5285 O.2          1    LIG   0.0000
  16 N16          1.0000     1.0000     1.0000 N.am         1    LIG   0.0000
  17 C17          2.4002     1.0000     1.0000 C.ar         1    LIG   0.0000
  18 C18          3.0910     2.2078     0.9950 C.ar         1    LIG   0.0000
  19 C19          4.4817     2.2135     0.9959 C.ar         1    LIG   0.0000
  20 C20          5.1646     1.0012     1.0009 C.ar         1    LIG   0.0000
  21 C21          6.6848     1.0002     1.0016 C.3          1    LIG   0.0000
  22 N22          7.1753     0.9945    -0.3840 N.4          1    LIG   1.0000
  23 C23          6.6509    -0.2289    -1.0129 C.3          1    LIG   0.0000
  24 C24          7.0539    -0.3338    -2.4763 C.3          1    LIG   0.0000
  25 N25          6.8411     0.9376    -3.1859 N.pl3        1    LIG   0.0000
  26 C26          6.4712     0.8994    -4.5357 C.ar         1    LIG   0.0000
  27 C27          6.3145    -0.3292    -5.1691 C.ar         1    LIG   0.0000
  28 C28          5.9471    -0.3549    -6.5103 C.ar         1    LIG   0.0000
  29 C29          5.7368     0.8260    -7.2143 C.ar         1    LIG   0.0000
  30 C30          5.8990     2.0433    -6.5609 C.ar         1    LIG   0.0000
  31 C31          5.6720     3.3394    -7.3218 C.3          1    LIG   0.0000
  32 C32          6.2664     2.0925    -5.2204 C.ar         1    LIG   0.0000
  33 C33          6.9952     2.2437    -2.5246 C.3          1    LIG   0.0000
  34 C34          6.6134     2.1799    -1.0529 C.3          1    LIG   0.0000
  35 C35          4.4740    -0.2060     1.0043 C.ar         1    LIG   0.0000
  36 C36          3.0832    -0.2118     1.0041 C.ar         1    LIG   0.0000
  37 C37         -1.8460    -1.3095     0.7322 C.ar         1    LIG   0.0000
  38 H            8.1749     1.0096    -0.4097 H            1    LIG   0.0000
  39 H           -2.6805    -1.4268     2.4325 H            1    LIG   0.0000
  40 H           -3.8528    -1.7249     3.5297 H            1    LIG   0.0000
  41 H           -2.6581    -2.8132     3.2952 H            1    LIG   0.0000
  42 H           -4.5180    -2.8689    -0.2364 H            1    LIG   0.0000
  43 H           -4.3920    -0.5082    -1.2533 H            1    LIG   0.0000
  44 H           -3.9371     1.8834    -2.1152 H            1    LIG   0.0000
  45 H           -3.4731     3.2586    -3.9262 H            1    LIG   0.0000
  46 H           -1.9478     3.8409    -3.9597 H            1    LIG   0.0000
  47 H           -2.3877     2.6448    -4.9807 H            1    LIG   0.0000
  48 H           -0.7379     1.4204    -0.8135 H            1    LIG   0.0000
  49 H            0.5000     1.8660     0.9964 H            1    LIG   0.0000
  50 H            2.5875     3.0718     0.9908 H            1    LIG   0.0000
  51 H            4.9845     3.0779     0.9929 H            1    LIG   0.0000
  52 H            7.0184     1.8183     1.4699 H            1    LIG   0.0000
  53 H            7.0174     0.1854     1.4763 H            1    LIG   0.0000
  54 H            5.6527    -0.2208    -0.9525 H            1    LIG   0.0000
  55 H            7.0081    -1.0233    -0.5217 H            1    LIG   0.0000
  56 H            8.0221    -0.5781    -2.5302 H            1    LIG   0.0000
  57 H            6.5056    -1.0463    -2.9143 H            1    LIG   0.0000
  58 H            6.4637    -1.1814    -4.6676 H            1    LIG   0.0000
  59 H            5.8328    -1.2333    -6.9742 H            1    LIG   0.0000
  60 H            5.4721     0.8003    -8.1783 H            1    LIG   0.0000
  61 H            5.4158     3.1314    -8.2657 H            1    LIG   0.0000
  62 H            4.9382     3.8588    -6.8839 H            1    LIG   0.0000
  63 H            6.5128     3.8808    -7.3162 H            1    LIG   0.0000
  64 H            6.3812     2.9710    -4.7566 H            1    LIG   0.0000
  65 H            6.4073     2.9101    -2.9831 H            1    LIG   0.0000
  66 H            7.9493     2.5338    -2.5993 H            1    LIG   0.0000
  67 H            6.9557     3.0006    -0.5954 H            1    LIG   0.0000
  68 H            5.6165     2.1488    -0.9798 H            1    LIG   0.0000
  69 H            4.9775    -1.0700     1.0069 H            1    LIG   0.0000
  70 H            2.5805    -1.0762     1.0069 H            1    LIG   0.0000
  71 H           -1.5692    -1.9888     1.4119 H            1    LIG   0.0000
@<TRIPOS>BOND
   1        1        2 1
   2        2        3 2
   3        2        4 am
   4        4        5 1
   5        5        6 ar
   6        6        7 ar
   7        7        8 1
   8        8        9 am
   9        9       10 1
  10        9       11 2
  11        7       12 ar
  12       12       13 ar
  13       13       14 1
  14       14       15 2
  15       14       16 am
  16       16       17 1
  17       17       18 ar
  18       18       19 ar
  19       19       20 ar
  20       20       21 1
  21       21       22 1
  22       22       23 1
  23       23       24 1
  24       24       25 1
  25       25       26 1
  26       26       27 ar
  27       27       28 ar
  28       28       29 ar
  29       29       30 ar
  30       30       31 1
  31       30       32 ar
  32       32       26 ar
  33       25       33 1
  34       33       34 1
  35       34       22 1
  36       20       35 ar
  37       35       36 ar
  38       36       17 ar
  39       13       37 ar
  40       37        5 ar
  41       22       38 1
  42        1       39 1
  43        1       40 1
  44        1       41 1
  45        4       42 1
  46        6       43 1
  47        8       44 1
  48       10       45 1
  49       10       46 1
  50       10       47 1
  51       12       48 1
  52       16       49 1
  53       18       50 1
  54       19       51 1
  55       21       52 1
  56       21       53 1
  57       23       54 1
  58       23       55 1
  59       24       56 1
  60       24       57 1
  61       27       58 1
  62       28       59 1
  63       29       60 1
  64       31       61 1
  65       31       62 1
  66       31       63 1
  67       32       64 1
  68       33       65 1
  69       33       66 1
  70       34       67 1
  71       34       68 1
  72       35       69 1
  73       36       70 1
  74       37       71 1

@<TRIPOS>MOLECULE

  71   74
SMALL
USER_CHARGES
@<TRIPOS>ATOM
   1 C1          -4.6497    -4.1963    -0.0660 C.3          1    LIG   0.0000
   2 C2          -3.5948    -3.3570     0.6362 C.2          1    LIG   0.0000
   3 O3          -2.4331    -3.5181     0.3822 O.2          1    LIG   0.0000
   4 N4          -3.9702    -2.4166     1.5590 N.am         1    LIG   0.0000
   5 C5          -3.0952    -1.3771     1.8946 C.ar         1    LIG   0.0000
   6 C6          -3.4921    -0.4307     2.8334 C.ar         1    LIG   0.0000
   7 C7          -2.6157     0.5983     3.1616 C.ar         1    LIG   0.0000
   8 N8          -3.0000     1.5584     4.1051 N.am         1    LIG   0.0000
   9 C9          -2.1437     2.5757     4.4350 C.2          1    LIG   0.0000
  10 C10         -2.1866     3.1838     5.8274 C.3          1    LIG   0.0000
  11 O11         -1.3599     2.9867     3.6247 O.2          1    LIG   0.0000
  12 C12         -1.3608     0.6912     2.5689 C.ar         1    LIG   0.0000
  13 C13         -0.9889    -0.2679     1.6329 C.ar         1    LIG   0.0000
  14 C14          0.3150    -0.1864     1.0049 C.2          1    LIG   0.0000
  15 O15          0.7944    -1.1582     0.4893 O.2          1    LIG   0.0000
  16 N16          1.0000     1.0000     1.0000 N.am         1    LIG   0.0000
  17 C17          2.4002     1.0000     1.0000 C.ar         1    LIG   0.0000
  18 C18          3.0910     2.2078     0.9950 C.ar         1    LIG   0.0000
  19 C19          4.4817     2.2135     0.9959 C.ar         1    LIG   0.0000
  20 C20          5.1646     1.0012     1.0009 C.ar         1    LIG   0.0000
  21 C21          6.6848     1.0002     1.0016 C.3          1    LIG   0.0000
  22 N22          7.1753     0.9945    -0.3840 N.4          1    LIG   1.0000
  23 C23          6.6509    -0.2289    -1.0129 C.3          1    LIG   0.0000
  24 C24          7.0539    -0.3338    -2.4763 C.3          1    LIG   0.0000
  25 N25          6.8411     0.9376    -3.1859 N.pl3        1    LIG   0.0000
  26 C26          6.4712     0.8994    -4.5357 C.ar         1    LIG   0.0000
  27 C27          6.3145    -0.3292    -5.1691 C.ar         1    LIG   0.0000
  28 C28          5.9471    -0.3549    -6.5103 C.ar         1    LIG   0.0000
  29 C29          5.7368     0.8260    -7.2143 C.ar         1    LIG   0.0000
  30 C30          5.8990     2.0433    -6.5609 C.ar         1    LIG   0.0000
  31 C31          5.6720     3.3394    -7.3218 C.3          1    LIG   0.0000
  32 C32          6.2664     2.0925    -5.2204 C.ar         1    LIG   0.0000
  33 C33          6.9952     2.2437    -2.5246 C.3          1    LIG   0.0000
  34 C34          6.6134     2.1799    -1.0529 C.3          1    LIG   0.0000
  35 C35          4.4740    -0.2060     1.0043 C.ar         1    LIG   0.0000
  36 C36          3.0832    -0.2118     1.0041 C.ar         1    LIG   0.0000
  37 C37         -1.8460    -1.3073     1.2868 C.ar         1    LIG   0.0000
  38 H            8.1749     1.0096    -0.4097 H            1    LIG   0.0000
  39 H           -5.5572    -3.9336     0.2619 H            1    LIG   0.0000
  40 H           -4.5947    -4.0436    -1.0527 H            1    LIG   0.0000
  41 H           -4.4913    -5.1638     0.1309 H            1    LIG   0.0000
  42 H           -4.8694    -2.4730     1.9929 H            1    LIG   0.0000
  43 H           -4.3923    -0.4891     3.2651 H            1    LIG   0.0000
  44 H           -3.8995     1.5017     4.5383 H            1    LIG   0.0000
  45 H           -2.8918     2.7265     6.3692 H            1    LIG   0.0000
  46 H           -1.2976     3.0663     6.2700 H            1    LIG   0.0000
  47 H           -2.3987     4.1586     5.7590 H            1    LIG   0.0000
  48 H           -0.7372     1.4343     2.8114 H            1    LIG   0.0000
  49 H            0.5000     1.8660     0.9964 H            1    LIG   0.0000
  50 H            2.5875     3.0718     0.9908 H            1    LIG   0.0000
  51 H            4.9845     3.0779     0.9929 H            1    LIG   0.0000
  52 H            7.0184     1.8183     1.4699 H            1    LIG   0.0000
  53 H            7.0174     0.1854     1.4763 H            1    LIG   0.0000
  54 H            5.6527    -0.2208    -0.9525 H            1    LIG   0.0000
  55 H            7.0081    -1.0233    -0.5217 H            1    LIG   0.0000
  56 H            8.0221    -0.5781    -2.5302 H            1    LIG   0.0000
  57 H            6.5056    -1.0463    -2.9143 H            1    LIG   0.0000
  58 H            6.4637    -1.1814    -4.6676 H            1    LIG   0.0000
  59 H            5.8328    -1.2333    -6.9742 H            1    LIG   0.0000
  60 H            5.4721     0.8003    -8.1783 H            1    LIG   0.0000
  61 H            5.4158     3.1314    -8.2657 H            1    LIG   0.0000
  62 H            4.9382     3.8588    -6.8839 H            1    LIG   0.0000
  63 H            6.5128     3.8808    -7.3162 H            1    LIG   0.0000
  64 H            6.3812     2.9710    -4.7566 H            1    LIG   0.0000
  65 H            6.4073     2.9101    -2.9831 H            1    LIG   0.0000
  66 H            7.9493     2.5338    -2.5993 H            1    LIG   0.0000
  67 H            6.9557     3.0006    -0.5954 H            1    LIG   0.0000
  68 H            5.6165     2.1488    -0.9798 H            1    LIG   0.0000
  69 H            4.9775    -1.0700     1.0069 H            1    LIG   0.0000
  70 H            2.5805    -1.0762     1.0069 H            1    LIG   0.0000
  71 H           -1.5690    -1.9922     0.6130 H            1    LIG   0.0000
@<TRIPOS>BOND
   1        1        2 1
   2        2        3 2
   3        2        4 am
   4        4        5 1
   5        5        6 ar
   6        6        7 ar
   7        7        8 1
   8        8        9 am
   9        9       10 1
  10        9       11 2
  11        7       12 ar
  12       12       13 ar
  13       13       14 1
  14       14       15 2
  15       14       16 am
  16       16       17 1
  17       17       18 ar
  18       18       19 ar
  19       19       20 ar
  20       20       21 1
  21       21       22 1
  22       22       23 1
  23       23       24 1
  24       24       25 1
  25       25       26 1
  26       26       27 ar
  27       27       28 ar
  28       28       29 ar
  29       29       30 ar
  30       30       31 1
  31       30       32 ar
  32       32       26 ar
  33       25       33 1
  34       33       34 1
  35       34       22 1
  36       20       35 ar
  37       35       36 ar
  38       36       17 ar
  39       13       37 ar
  40       37        5 ar
  41       22       38 1
  42        1       39 1
  43        1       40 1
  44        1       41 1
  45        4       42 1
  46        6       43 1
  47        8       44 1
  48       10       45 1
  49       10       46 1
  50       10       47 1
  51       12       48 1
  52       16       49 1
  53       18       50 1
  54       19       51 1
  55       21       52 1
  56       21       53 1
  57       23       54 1
  58       23       55 1
  59       24       56 1
  60       24       57 1
  61       27       58 1
  62       28       59 1
  63       29       60 1
  64       31       61 1
  65       31       62 1
  66       31       63 1
  67       32       64 1
  68       33       65 1
  69       33       66 1
  70       34       67 1
  71       34       68 1
  72       35       69 1
  73       36       70 1
  74       37       71 1

@<TRIPOS>MOLECULE

  71   74
SMALL
USER_CHARGES
@<TRIPOS>ATOM
   1 C1          -3.2225    -5.3156     2.7521 C.3          1    LIG   0.0000
   2 C2          -2.5278    -3.9638     2.7727 C.2          1    LIG   0.0000
   3 O3          -1.3427    -3.8954     2.5972 O.2          1    LIG   0.0000
   4 N4          -3.2547    -2.8233     2.9918 N.am         1    LIG   0.0000
   5 C5          -2.7387    -1.5801     2.6084 C.ar         1    LIG   0.0000
   6 C6          -3.4898    -0.4322     2.8381 C.ar         1    LIG   0.0000
   7 C7          -2.9686     0.7992     2.4548 C.ar         1    LIG   0.0000
   8 N8          -3.7119     1.9639     2.6795 N.am         1    LIG   0.0000
   9 C9          -3.2072     3.1814     2.3056 C.2          1    LIG   0.0000
  10 C10         -3.5876     4.4324     3.0807 C.3          1    LIG   0.0000
  11 O11         -2.4648     3.2603     1.3661 O.2          1    LIG   0.0000
  12 C12         -1.7192     0.8953     1.8514 C.ar         1    LIG   0.0000
  13 C13         -0.9889    -0.2679     1.6329 C.ar         1    LIG   0.0000
  14 C14          0.3150    -0.1864     1.0049 C.2          1    LIG   0.0000
  15 O15          0.7944    -1.1582     0.4893 O.2          1    LIG   0.0000
  16 N16          1.0000     1.0000     1.0000 N.am         1    LIG   0.0000
  17 C17          2.4002     1.0000     1.0000 C.ar         1    LIG   0.0000
  18 C18          3.0910     2.2078     0.9950 C.ar         1    LIG   0.0000
  19 C19          4.4817     2.2135     0.9959 C.ar         1    LIG   0.0000
  20 C20          5.1646     1.0012     1.0009 C.ar         1    LIG   0.0000
  21 C21          6.6848     1.0002     1.0016 C.3          1    LIG   0.0000
  22 N22          7.1753     0.9945    -0.3840 N.4          1    LIG   1.0000
  23 C23          6.6509    -0.2289    -1.0129 C.3          1    LIG   0.0000
  24 C24          7.0539    -0.3338    -2.4763 C.3          1    LIG   0.0000
  25 N25          6.8411     0.9376    -3.1859 N.pl3        1    LIG   0.0000
  26 C26          6.4712     0.8994    -4.5357 C.ar         1    LIG   0.0000
  27 C27          6.3145    -0.3292    -5.1691 C.ar         1    LIG   0.0000
  28 C28          5.9471    -0.3549    -6.5103 C.ar         1    LIG   0.0000
  29 C29          5.7368     0.8260    -7.2143 C.ar         1    LIG   0.0000
  30 C30          5.8990     2.0433    -6.5609 C.ar         1    LIG   0.0000
  31 C31          5.6720     3.3394    -7.3218 C.3          1    LIG   0.0000
  32 C32          6.2664     2.0925    -5.2204 C.ar         1    LIG   0.0000
  33 C33          6.9952     2.2437    -2.5246 C.3          1    LIG   0.0000
  34 C34          6.6134     2.1799    -1.0529 C.3          1    LIG   0.0000
  35 C35          4.4740    -0.2060     1.0043 C.ar         1    LIG   0.0000
  36 C36          3.0832    -0.2118     1.0041 C.ar         1    LIG   0.0000
  37 C37         -1.4866    -1.5118     2.0066 C.ar         1    LIG   0.0000
  38 H            8.1749     1.0096    -0.4097 H            1    LIG   0.0000
  39 H           -4.2012    -5.1899     2.9142 H            1    LIG   0.0000
  40 H           -3.0850    -5.7474     1.8607 H            1    LIG   0.0000
  41 H           -2.8382    -5.8988     3.4678 H            1    LIG   0.0000
  42 H           -4.1540    -2.8792     3.4256 H            1    LIG   0.0000
  43 H           -4.3891    -0.4911     3.2714 H            1    LIG   0.0000
  44 H           -4.6113     1.9073     3.1130 H            1    LIG   0.0000
  45 H           -4.2083     4.1872     3.8254 H            1    LIG   0.0000
  46 H           -2.7633     4.8538     3.4589 H            1    LIG   0.0000
  47 H           -4.0414     5.0792     2.4678 H            1    LIG   0.0000
  48 H           -1.3524     1.7851     1.5796 H            1    LIG   0.0000
  49 H            0.5000     1.8660     0.9964 H            1    LIG   0.0000
  50 H            2.5875     3.0718     0.9908 H            1    LIG   0.0000
  51 H            4.9845     3.0779     0.9929 H            1    LIG   0.0000
  52 H            7.0184     1.8183     1.4699 H            1    LIG   0.0000
  53 H            7.0174     0.1854     1.4763 H            1    LIG   0.0000
  54 H            5.6527    -0.2208    -0.9525 H            1    LIG   0.0000
  55 H            7.0081    -1.0233    -0.5217 H            1    LIG   0.0000
  56 H            8.0221    -0.5781    -2.5302 H            1    LIG   0.0000
  57 H            6.5056    -1.0463    -2.9143 H            1    LIG   0.0000
  58 H            6.4637    -1.1814    -4.6676 H            1    LIG   0.0000
  59 H            5.8328    -1.2333    -6.9742 H            1    LIG   0.0000
  60 H            5.4721     0.8003    -8.1783 H            1    LIG   0.0000
  61 H            5.4158     3.1314    -8.2657 H            1    LIG   0.0000
  62 H            4.9382     3.8588    -6.8839 H            1    LIG   0.0000
  63 H            6.5128     3.8808    -7.3162 H            1    LIG   0.0000
  64 H            6.3812     2.9710    -4.7566 H            1    LIG   0.0000
  65 H            6.4073     2.9101    -2.9831 H            1    LIG   0.0000
  66 H            7.9493     2.5338    -2.5993 H            1    LIG   0.0000
  67 H            6.9557     3.0006    -0.5954 H            1    LIG   0.0000
  68 H            5.6165     2.1488    -0.9798 H            1    LIG   0.0000
  69 H            4.9775    -1.0700     1.0069 H            1    LIG   0.0000
  70 H            2.5805    -1.0762     1.0069 H            1    LIG   0.0000
  71 H           -0.9535    -2.3424     1.8455 H            1    LIG   0.0000
@<TRIPOS>BOND
   1        1        2 1
   2        2        3 2
   3        2        4 am
   4        4        5 1
   5        5        6 ar
   6        6        7 ar
   7        7        8 1
   8        8        9 am
   9        9       10 1
  10        9       11 2
  11        7       12 ar
  12       12       13 ar
  13       13       14 1
  14       14       15 2
  15       14       16 am
  16       16       17 1
  17       17       18 ar
  18       18       19 ar
  19       19       20 ar
  20       20       21 1
  21       21       22 1
  22       22       23 1
  23       23       24 1
  24       24       25 1
  25       25       26 1
  26       26       27 ar
  27       27       28 ar
  28       28       29 ar
  29       29       30 ar
  30       30       31 1
  31       30       32 ar
  32       32       26 ar
  33       25       33 1
  34       33       34 1
  35       34       22 1
  36       20       35 ar
  37       35       36 ar
  38       36       17 ar
  39       13       37 ar
  40       37        5 ar
  41       22       38 1
  42        1       39 1
  43        1       40 1
  44        1       41 1
  45        4       42 1
  46        6       43 1
  47        8       44 1
  48       10       45 1
  49       10       46 1
  50       10       47 1
  51       12       48 1
  52       16       49 1
  53       18       50 1
  54       19       51 1
  55       21       52 1
  56       21       53 1
  57       23       54 1
  58       23       55 1
  59       24       56 1
  60       24       57 1
  61       27       58 1
  62       28       59 1
  63       29       60 1
  64       31       61 1
  65       31       62 1
  66       31       63 1
  67       32       64 1
  68       33       65 1
  69       33       66 1
  70       34       67 1
  71       34       68 1
  72       35       69 1
  73       36       70 1
  74       37       71 1

@<TRIPOS>MOLECULE

  71   74
SMALL
USER_CHARGES
@<TRIPOS>ATOM
   1 C1          -4.9303    -3.6178     2.6132 C.3          1    LIG   0.0000
   2 C2          -4.0281    -2.4743     2.1788 C.2          1    LIG   0.0000
   3 O3          -3.1119    -2.1349     2.8756 O.2          1    LIG   0.0000
   4 N4          -4.2609    -1.8310     0.9919 N.am         1    LIG   0.0000
   5 C5          -3.2397    -1.0911     0.3848 C.ar         1    LIG   0.0000
   6 C6          -3.4929    -0.4442    -0.8201 C.ar         1    LIG   0.0000
   7 C7          -2.4725     0.2898    -1.4157 C.ar         1    LIG   0.0000
   8 N8          -2.7115     0.9472    -2.6283 N.am         1    LIG   0.0000
   9 C9          -1.9682     0.6337    -3.7356 C.2          1    LIG   0.0000
  10 C10         -0.8840    -0.4280    -3.6475 C.3          1    LIG   0.0000
  11 O11         -2.1731     1.1972    -4.7750 O.2          1    LIG   0.0000
  12 C12         -1.2157     0.3837    -0.8272 C.ar         1    LIG   0.0000
  13 C13         -0.9889    -0.2731     0.3776 C.ar         1    LIG   0.0000
  14 C14          0.3150    -0.1864     1.0049 C.2          1    LIG   0.0000
  15 O15          0.7944    -1.1539     1.5285 O.2          1    LIG   0.0000
  16 N16          1.0000     1.0000     1.0000 N.am         1    LIG   0.0000
  17 C17          2.4002     1.0000     1.0000 C.ar         1    LIG   0.0000
  18 C18          3.0910     2.2078     0.9950 C.ar         1    LIG   0.0000
  19 C19          4.4817     2.2135     0.9959 C.ar         1    LIG   0.0000
  20 C20          5.1646     1.0012     1.0009 C.ar         1    LIG   0.0000
  21 C21          6.6848     1.0002     1.0016 C.3          1    LIG   0.0000
  22 N22          7.1753     0.9945    -0.3840 N.4          1    LIG   1.0000
  23 C23          6.6509    -0.2289    -1.0129 C.3          1    LIG   0.0000
  24 C24          7.0539    -0.3338    -2.4763 C.3          1    LIG   0.0000
  25 N25          6.8411     0.9376    -3.1859 N.pl3        1    LIG   0.0000
  26 C26          6.4712     0.8994    -4.5357 C.ar         1    LIG   0.0000
  27 C27          5.9138    -0.2618    -5.0613 C.ar         1    LIG   0.0000
  28 C28          5.5505    -0.2882    -6.4035 C.ar         1    LIG   0.0000
  29 C29          5.7376     0.8260    -7.2145 C.ar         1    LIG   0.0000
  30 C30          6.2966     1.9766    -6.6680 C.ar         1    LIG   0.0000
  31 C31          6.5057     3.1994    -7.5462 C.3          1    LIG   0.0000
  32 C32          6.6676     2.0251    -5.3284 C.ar         1    LIG   0.0000
  33 C33          6.9952     2.2437    -2.5246 C.3          1    LIG   0.0000
  34 C34          6.6134     2.1799    -1.0529 C.3          1    LIG   0.0000
  35 C35          4.4740    -0.2060     1.0043 C.ar         1    LIG   0.0000
  36 C36          3.0832    -0.2118     1.0041 C.ar         1    LIG   0.0000
  37 C37         -1.9919    -1.0135     0.9944 C.ar         1    LIG   0.0000
  38 H            8.1749     1.0096    -0.4097 H            1    LIG   0.0000
  39 H           -5.6362    -3.7670     1.9208 H            1    LIG   0.0000
  40 H           -4.3860    -4.4501     2.7190 H            1    LIG   0.0000
  41 H           -5.3621    -3.3888     3.4856 H            1    LIG   0.0000
  42 H           -5.1605    -1.8901     0.5592 H            1    LIG   0.0000
  43 H           -4.3933    -0.5057    -1.2510 H            1    LIG   0.0000
  44 H           -3.4248     1.6457    -2.6862 H            1    LIG   0.0000
  45 H           -0.8486    -0.7919    -2.7167 H            1    LIG   0.0000
  46 H           -1.0898    -1.1685    -4.2873 H            1    LIG   0.0000
  47 H           -0.0003    -0.0221    -3.8806 H            1    LIG   0.0000
  48 H           -0.4883     0.9140    -1.2625 H            1    LIG   0.0000
  49 H            0.5000     1.8660     0.9964 H            1    LIG   0.0000
  50 H            2.5875     3.0718     0.9908 H            1    LIG   0.0000
  51 H            4.9845     3.0779     0.9929 H            1    LIG   0.0000
  52 H            7.0184     1.8183     1.4699 H            1    LIG   0.0000
  53 H            7.0174     0.1854     1.4763 H            1    LIG   0.0000
  54 H            5.6527    -0.2208    -0.9525 H            1    LIG   0.0000
  55 H            7.0081    -1.0233    -0.5217 H            1    LIG   0.0000
  56 H            8.0221    -0.5781    -2.5302 H            1    LIG   0.0000
  57 H            6.5056    -1.0463    -2.9143 H            1    LIG   0.0000
  58 H            5.7763    -1.0656    -4.4825 H            1    LIG   0.0000
  59 H            5.1497    -1.1188    -6.7903 H            1    LIG   0.0000
  60 H            5.4735     0.8004    -8.1787 H            1    LIG   0.0000
  61 H            6.1895     3.0015    -8.4740 H            1    LIG   0.0000
  62 H            5.9872     3.9694    -7.1745 H            1    LIG   0.0000
  63 H            7.4781     3.4318    -7.5680 H            1    LIG   0.0000
  64 H            7.0689     2.8554    -4.9418 H            1    LIG   0.0000
  65 H            6.4073     2.9101    -2.9831 H            1    LIG   0.0000
  66 H            7.9493     2.5338    -2.5993 H            1    LIG   0.0000
  67 H            6.9557     3.0006    -0.5954 H            1    LIG   0.0000
  68 H            5.6165     2.1488    -0.9798 H            1    LIG   0.0000
  69 H            4.9775    -1.0700     1.0069 H            1    LIG   0.0000
  70 H            2.5805    -1.0762     1.0069 H            1    LIG   0.0000
  71 H           -1.8189    -1.4818     1.8608 H            1    LIG   0.0000
@<TRIPOS>BOND
   1        1        2 1
   2        2        3 2
   3        2        4 am
   4        4        5 1
   5        5        6 ar
   6        6        7 ar
   7        7        8 1
   8        8        9 am
   9        9       10 1
  10        9       11 2
  11        7       12 ar
  12       12       13 ar
  13       13       14 1
  14       14       15 2
  15       14       16 am
  16       16       17 1
  17       17       18 ar
  18       18       19 ar
  19       19       20 ar
  20       20       21 1
  21       21       22 1
  22       22       23 1
  23       23       24 1
  24       24       25 1
  25       25       26 1
  26       26       27 ar
  27       27       28 ar
  28       28       29 ar
  29       29       30 ar
  30       30       31 1
  31       30       32 ar
  32       32       26 ar
  33       25       33 1
  34       33       34 1
  35       34       22 1
  36       20       35 ar
  37       35       36 ar
  38       36       17 ar
  39       13       37 ar
  40       37        5 ar
  41       22       38 1
  42        1       39 1
  43        1       40 1
  44        1       41 1
  45        4       42 1
  46        6       43 1
  47        8       44 1
  48       10       45 1
  49       10       46 1
  50       10       47 1
  51       12       48 1
  52       16       49 1
  53       18       50 1
  54       19       51 1
  55       21       52 1
  56       21       53 1
  57       23       54 1
  58       23       55 1
  59       24       56 1
  60       24       57 1
  61       27       58 1
  62       28       59 1
  63       29       60 1
  64       31       61 1
  65       31       62 1
  66       31       63 1
  67       32       64 1
  68       33       65 1
  69       33       66 1
  70       34       67 1
  71       34       68 1
  72       35       69 1
  73       36       70 1
  74       37       71 1

@<TRIPOS>MOLECULE

  71   74
SMALL
USER_CHARGES
@<TRIPOS>ATOM
   1 C1          -2.0009    -3.9627     1.5264 C.3          1    LIG   0.0000
   2 C2          -3.4871    -3.6848     1.3708 C.2          1    LIG   0.0000
   3 O3          -4.2373    -4.5760     1.0831 O.2          1    LIG   0.0000
   4 N4          -3.9702    -2.4166     1.5590 N.am         1    LIG   0.0000
   5 C5          -3.0952    -1.3771     1.8946 C.ar         1    LIG   0.0000
   6 C6          -3.4921    -0.4307     2.8334 C.ar         1    LIG   0.0000
   7 C7          -2.6157     0.5983     3.1616 C.ar         1    LIG   0.0000
   8 N8          -3.0000     1.5584     4.1051 N.am         1    LIG   0.0000
   9 C9          -3.0637     2.8802     3.7504 C.2          1    LIG   0.0000
  10 C10         -2.7172     3.3042     2.3325 C.3          1    LIG   0.0000
  11 O11         -3.3932     3.7032     4.5592 O.2          1    LIG   0.0000
  12 C12         -1.3608     0.6912     2.5689 C.ar         1    LIG   0.0000
  13 C13         -0.9889    -0.2679     1.6329 C.ar         1    LIG   0.0000
  14 C14          0.3150    -0.1864     1.0049 C.2          1    LIG   0.0000
  15 O15          0.7944    -1.1582     0.4893 O.2          1    LIG   0.0000
  16 N16          1.0000     1.0000     1.0000 N.am         1    LIG   0.0000
  17 C17          2.4002     1.0000     1.0000 C.ar         1    LIG   0.0000
  18 C18          3.0910     2.2078     0.9950 C.ar         1    LIG   0.0000
  19 C19          4.4817     2.2135     0.9959 C.ar         1    LIG   0.0000
  20 C20          5.1646     1.0012     1.0009 C.ar         1    LIG   0.0000
  21 C21          6.6848     1.0002     1.0016 C.3          1    LIG   0.0000
  22 N22          7.1753     0.9945    -0.3840 N.4          1    LIG   1.0000
  23 C23          6.6509    -0.2289    -1.0129 C.3          1    LIG   0.0000
  24 C24          7.0539    -0.3338    -2.4763 C.3          1    LIG   0.0000
  25 N25          6.8411     0.9376    -3.1859 N.pl3        1    LIG   0.0000
  26 C26          6.4712     0.8994    -4.5357 C.ar         1    LIG   0.0000
  27 C27          5.9138    -0.2618    -5.0613 C.ar         1    LIG   0.0000
  28 C28          5.5505    -0.2882    -6.4035 C.ar         1    LIG   0.0000
  29 C29          5.7376     0.8260    -7.2145 C.ar         1    LIG   0.0000
  30 C30          6.2966     1.9766    -6.6680 C.ar         1    LIG   0.0000
  31 C31          6.5057     3.1994    -7.5462 C.3          1    LIG   0.0000
  32 C32          6.6676     2.0251    -5.3284 C.ar         1    LIG   0.0000
  33 C33          6.9952     2.2437    -2.5246 C.3          1    LIG   0.0000
  34 C34          6.6134     2.1799    -1.0529 C.3          1    LIG   0.0000
  35 C35          4.4740    -0.2060     1.0043 C.ar         1    LIG   0.0000
  36 C36          3.0832    -0.2118     1.0041 C.ar         1    LIG   0.0000
  37 C37         -1.8460    -1.3073     1.2868 C.ar         1    LIG   0.0000
  38 H            8.1749     1.0096    -0.4097 H            1    LIG   0.0000
  39 H           -1.5266    -3.1155     1.7658 H            1    LIG   0.0000
  40 H           -1.8621    -4.6384     2.2504 H            1    LIG   0.0000
  41 H           -1.6361    -4.3171     0.6654 H            1    LIG   0.0000
  42 H           -4.9480    -2.2338     1.4567 H            1    LIG   0.0000
  43 H           -4.3923    -0.4891     3.2651 H            1    LIG   0.0000
  44 H           -3.2280     1.2795     5.0379 H            1    LIG   0.0000
  45 H           -2.4664     2.4986     1.7956 H            1    LIG   0.0000
  46 H           -3.5090     3.7498     1.9149 H            1    LIG   0.0000
  47 H           -1.9481     3.9429     2.3541 H            1    LIG   0.0000
  48 H           -0.7372     1.4343     2.8114 H            1    LIG   0.0000
  49 H            0.5000     1.8660     0.9964 H            1    LIG   0.0000
  50 H            2.5875     3.0718     0.9908 H            1    LIG   0.0000
  51 H            4.9845     3.0779     0.9929 H            1    LIG   0.0000
  52 H            7.0184     1.8183     1.4699 H            1    LIG   0.0000
  53 H            7.0174     0.1854     1.4763 H            1    LIG   0.0000
  54 H            5.6527    -0.2208    -0.9525 H            1    LIG   0.0000
  55 H            7.0081    -1.0233    -0.5217 H            1    LIG   0.0000
  56 H            8.0221    -0.5781    -2.5302 H            1    LIG   0.0000
  57 H            6.5056    -1.0463    -2.9143 H            1    LIG   0.0000
  58 H            5.7763    -1.0656    -4.4825 H            1    LIG   0.0000
  59 H            5.1497    -1.1188    -6.7903 H            1    LIG   0.0000
  60 H            5.4735     0.8004    -8.1787 H            1    LIG   0.0000
  61 H            6.1895     3.0015    -8.4740 H            1    LIG   0.0000
  62 H            5.9872     3.9694    -7.1745 H            1    LIG   0.0000
  63 H            7.4781     3.4318    -7.5680 H            1    LIG   0.0000
  64 H            7.0689     2.8554    -4.9418 H            1    LIG   0.0000
  65 H            6.4073     2.9101    -2.9831 H            1    LIG   0.0000
  66 H            7.9493     2.5338    -2.5993 H            1    LIG   0.0000
  67 H            6.9557     3.0006    -0.5954 H            1    LIG   0.0000
  68 H            5.6165     2.1488    -0.9798 H            1    LIG   0.0000
  69 H            4.9775    -1.0700     1.0069 H            1    LIG   0.0000
  70 H            2.5805    -1.0762     1.0069 H            1    LIG   0.0000
  71 H           -1.5690    -1.9922     0.6130 H            1    LIG   0.0000
@<TRIPOS>BOND
   1        1        2 1
   2        2        3 2
   3        2        4 am
   4        4        5 1
   5        5        6 ar
   6        6        7 ar
   7        7        8 1
   8        8        9 am
   9        9       10 1
  10        9       11 2
  11        7       12 ar
  12       12       13 ar
  13       13       14 1
  14       14       15 2
  15       14       16 am
  16       16       17 1
  17       17       18 ar
  18       18       19 ar
  19       19       20 ar
  20       20       21 1
  21       21       22 1
  22       22       23 1
  23       23       24 1
  24       24       25 1
  25       25       26 1
  26       26       27 ar
  27       27       28 ar
  28       28       29 ar
  29       29       30 ar
  30       30       31 1
  31       30       32 ar
  32       32       26 ar
  33       25       33 1
  34       33       34 1
  35       34       22 1
  36       20       35 ar
  37       35       36 ar
  38       36       17 ar
  39       13       37 ar
  40       37        5 ar
  41       22       38 1
  42        1       39 1
  43        1       40 1
  44        1       41 1
  45        4       42 1
  46        6       43 1
  47        8       44 1
  48       10       45 1
  49       10       46 1
  50       10       47 1
  51       12       48 1
  52       16       49 1
  53       18       50 1
  54       19       51 1
  55       21       52 1
  56       21       53 1
  57       23       54 1
  58       23       55 1
  59       24       56 1
  60       24       57 1
  61       27       58 1
  62       28       59 1
  63       29       60 1
  64       31       61 1
  65       31       62 1
  66       31       63 1
  67       32       64 1
  68       33       65 1
  69       33       66 1
  70       34       67 1
  71       34       68 1
  72       35       69 1
  73       36       70 1
  74       37       71 1

@<TRIPOS>MOLECULE

  71   74
SMALL
USER_CHARGES
@<TRIPOS>ATOM
   1 C1          -3.6077    -1.9293    -0.8701 C.3          1    LIG   0.0000
   2 C2          -4.3950    -2.5636     0.2649 C.2          1    LIG   0.0000
   3 O3          -5.3886    -3.1932     0.0274 O.2          1    LIG   0.0000
   4 N4          -3.9702    -2.4166     1.5590 N.am         1    LIG   0.0000
   5 C5          -3.0952    -1.3771     1.8946 C.ar         1    LIG   0.0000
   6 C6          -3.4921    -0.4307     2.8334 C.ar         1    LIG   0.0000
   7 C7          -2.6157     0.5983     3.1616 C.ar         1    LIG   0.0000
   8 N8          -3.0000     1.5584     4.1051 N.am         1    LIG   0.0000
   9 C9          -2.2680     1.7238     5.2513 C.2          1    LIG   0.0000
  10 C10         -0.7747     1.4403     5.2470 C.3          1    LIG   0.0000
  11 O11         -2.8059     2.0924     6.2587 O.2          1    LIG   0.0000
  12 C12         -1.3608     0.6912     2.5689 C.ar         1    LIG   0.0000
  13 C13         -0.9889    -0.2679     1.6329 C.ar         1    LIG   0.0000
  14 C14          0.3150    -0.1864     1.0049 C.2          1    LIG   0.0000
  15 O15          0.7944    -1.1582     0.4893 O.2          1    LIG   0.0000
  16 N16          1.0000     1.0000     1.0000 N.am         1    LIG   0.0000
  17 C17          2.4002     1.0000     1.0000 C.ar         1    LIG   0.0000
  18 C18          3.0910     2.2078     0.9950 C.ar         1    LIG   0.0000
  19 C19          4.4817     2.2135     0.9959 C.ar         1    LIG   0.0000
  20 C20          5.1646     1.0012     1.0009 C.ar         1    LIG   0.0000
  21 C21          6.6848     1.0002     1.0016 C.3          1    LIG   0.0000
  22 N22          7.1753     0.9945    -0.3840 N.4          1    LIG   1.0000
  23 C23          6.6509    -0.2289    -1.0129 C.3          1    LIG   0.0000
  24 C24          7.0539    -0.3338    -2.4763 C.3          1    LIG   0.0000
  25 N25          6.8411     0.9376    -3.1859 N.pl3        1    LIG   0.0000
  26 C26          6.4712     0.8994    -4.5357 C.ar         1    LIG   0.0000
  27 C27          5.9138    -0.2618    -5.0613 C.ar         1    LIG   0.0000
  28 C28          5.5505    -0.2882    -6.4035 C.ar         1    LIG   0.0000
  29 C29          5.7376     0.8260    -7.2145 C.ar         1    LIG   0.0000
  30 C30          6.2966     1.9766    -6.6680 C.ar         1    LIG   0.0000
  31 C31          6.5057     3.1994    -7.5462 C.3          1    LIG   0.0000
  32 C32          6.6676     2.0251    -5.3284 C.ar         1    LIG   0.0000
  33 C33          6.9952     2.2437    -2.5246 C.3          1    LIG   0.0000
  34 C34          6.6134     2.1799    -1.0529 C.3          1    LIG   0.0000
  35 C35          4.4740    -0.2060     1.0043 C.ar         1    LIG   0.0000
  36 C36          3.0832    -0.2118     1.0041 C.ar         1    LIG   0.0000
  37 C37         -1.8460    -1.3073     1.2868 C.ar         1    LIG   0.0000
  38 H            8.1749     1.0096    -0.4097 H            1    LIG   0.0000
  39 H           -2.8156    -1.4462    -0.4971 H            1    LIG   0.0000
  40 H           -3.2976    -2.6418    -1.4996 H            1    LIG   0.0000
  41 H           -4.1920    -1.2826    -1.3604 H            1    LIG   0.0000
  42 H           -4.2853    -3.0521     2.2639 H            1    LIG   0.0000
  43 H           -4.3923    -0.4891     3.2651 H            1    LIG   0.0000
  44 H           -3.8088     2.1236     3.9424 H            1    LIG   0.0000
  45 H           -0.4941     1.1453     4.3337 H            1    LIG   0.0000
  46 H           -0.2770     2.2710     5.4965 H            1    LIG   0.0000
  47 H           -0.5706     0.7182     5.9080 H            1    LIG   0.0000
  48 H           -0.7372     1.4343     2.8114 H            1    LIG   0.0000
  49 H            0.5000     1.8660     0.9964 H            1    LIG   0.0000
  50 H            2.5875     3.0718     0.9908 H            1    LIG   0.0000
  51 H            4.9845     3.0779     0.9929 H            1    LIG   0.0000
  52 H            7.0184     1.8183     1.4699 H            1    LIG   0.0000
  53 H            7.0174     0.1854     1.4763 H            1    LIG   0.0000
  54 H            5.6527    -0.2208    -0.9525 H            1    LIG   0.0000
  55 H            7.0081    -1.0233    -0.5217 H            1    LIG   0.0000
  56 H            8.0221    -0.5781    -2.5302 H            1    LIG   0.0000
  57 H            6.5056    -1.0463    -2.9143 H            1    LIG   0.0000
  58 H            5.7763    -1.0656    -4.4825 H            1    LIG   0.0000
  59 H            5.1497    -1.1188    -6.7903 H            1    LIG   0.0000
  60 H            5.4735     0.8004    -8.1787 H            1    LIG   0.0000
  61 H            6.1895     3.0015    -8.4740 H            1    LIG   0.0000
  62 H            5.9872     3.9694    -7.1745 H            1    LIG   0.0000
  63 H            7.4781     3.4318    -7.5680 H            1    LIG   0.0000
  64 H            7.0689     2.8554    -4.9418 H            1    LIG   0.0000
  65 H            6.4073     2.9101    -2.9831 H            1    LIG   0.0000
  66 H            7.9493     2.5338    -2.5993 H            1    LIG   0.0000
  67 H            6.9557     3.0006    -0.5954 H            1    LIG   0.0000
  68 H            5.6165     2.1488    -0.9798 H            1    LIG   0.0000
  69 H            4.9775    -1.0700     1.0069 H            1    LIG   0.0000
  70 H            2.5805    -1.0762     1.0069 H            1    LIG   0.0000
  71 H           -1.5690    -1.9922     0.6130 H            1    LIG   0.0000
@<TRIPOS>BOND
   1        1        2 1
   2        2        3 2
   3        2        4 am
   4        4        5 1
   5        5        6 ar
   6        6        7 ar
   7        7        8 1
   8        8        9 am
   9        9       10 1
  10        9       11 2
  11        7       12 ar
  12       12       13 ar
  13       13       14 1
  14       14       15 2
  15       14       16 am
  16       16       17 1
  17       17       18 ar
  18       18       19 ar
  19       19       20 ar
  20       20       21 1
  21       21       22 1
  22       22       23 1
  23       23       24 1
  24       24       25 1
  25       25       26 1
  26       26       27 ar
  27       27       28 ar
  28       28       29 ar
  29       29       30 ar
  30       30       31 1
  31       30       32 ar
  32       32       26 ar
  33       25       33 1
  34       33       34 1
  35       34       22 1
  36       20       35 ar
  37       35       36 ar
  38       36       17 ar
  39       13       37 ar
  40       37        5 ar
  41       22       38 1
  42        1       39 1
  43        1       40 1
  44        1       41 1
  45        4       42 1
  46        6       43 1
  47        8       44 1
  48       10       45 1
  49       10       46 1
  50       10       47 1
  51       12       48 1
  52       16       49 1
  53       18       50 1
  54       19       51 1
  55       21       52 1
  56       21       53 1
  57       23       54 1
  58       23       55 1
  59       24       56 1
  60       24       57 1
  61       27       58 1
  62       28       59 1
  63       29       60 1
  64       31       61 1
  65       31       62 1
  66       31       63 1
  67       32       64 1
  68       33       65 1
  69       33       66 1
  70       34       67 1
  71       34       68 1
  72       35       69 1
  73       36       70 1
  74       37       71 1

@<TRIPOS>MOLECULE

  71   74
SMALL
USER_CHARGES
@<TRIPOS>ATOM
   1 C1          -0.9569    -3.4558     3.7597 C.3          1    LIG   0.0000
   2 C2          -2.4311    -3.7632     3.5532 C.2          1    LIG   0.0000
   3 O3          -2.8735    -4.8292     3.8819 O.2          1    LIG   0.0000
   4 N4          -3.2547    -2.8233     2.9918 N.am         1    LIG   0.0000
   5 C5          -2.7387    -1.5801     2.6084 C.ar         1    LIG   0.0000
   6 C6          -3.4898    -0.4322     2.8381 C.ar         1    LIG   0.0000
   7 C7          -2.9686     0.7992     2.4548 C.ar         1    LIG   0.0000
   8 N8          -3.7119     1.9639     2.6795 N.am         1    LIG   0.0000
   9 C9          -4.0801     2.7559     1.6240 C.2          1    LIG   0.0000
  10 C10         -4.0994     2.1845     0.2156 C.3          1    LIG   0.0000
  11 O11         -4.3874     3.9007     1.8113 O.2          1    LIG   0.0000
  12 C12         -1.7192     0.8953     1.8514 C.ar         1    LIG   0.0000
  13 C13         -0.9889    -0.2679     1.6329 C.ar         1    LIG   0.0000
  14 C14          0.3150    -0.1864     1.0049 C.2          1    LIG   0.0000
  15 O15          0.7944    -1.1582     0.4893 O.2          1    LIG   0.0000
  16 N16          1.0000     1.0000     1.0000 N.am         1    LIG   0.0000
  17 C17          2.4002     1.0000     1.0000 C.ar         1    LIG   0.0000
  18 C18          3.0910     2.2078     0.9950 C.ar         1    LIG   0.0000
  19 C19          4.4817     2.2135     0.9959 C.ar         1    LIG   0.0000
  20 C20          5.1646     1.0012     1.0009 C.ar         1    LIG   0.0000
  21 C21          6.6848     1.0002     1.0016 C.3          1    LIG   0.0000
  22 N22          7.1753     0.9945    -0.3840 N.4          1    LIG   1.0000
  23 C23          6.6509    -0.2289    -1.0129 C.3          1    LIG   0.0000
  24 C24          7.0539    -0.3338    -2.4763 C.3          1    LIG   0.0000
  25 N25          6.8411     0.9376    -3.1859 N.pl3        1    LIG   0.0000
  26 C26          6.4712     0.8994    -4.5357 C.ar         1    LIG   0.0000
  27 C27          5.9138    -0.2618    -5.0613 C.ar         1    LIG   0.0000
  28 C28          5.5505    -0.2882    -6.4035 C.ar         1    LIG   0.0000
  29 C29          5.7376     0.8260    -7.2145 C.ar         1    LIG   0.0000
  30 C30          6.2966     1.9766    -6.6680 C.ar         1    LIG   0.0000
  31 C31          6.5057     3.1994    -7.5462 C.3          1    LIG   0.0000
  32 C32          6.6676     2.0251    -5.3284 C.ar         1    LIG   0.0000
  33 C33          6.9952     2.2437    -2.5246 C.3          1    LIG   0.0000
  34 C34          6.6134     2.1799    -1.0529 C.3          1    LIG   0.0000
  35 C35          4.4740    -0.2060     1.0043 C.ar         1    LIG   0.0000
  36 C36          3.0832    -0.2118     1.0041 C.ar         1    LIG   0.0000
  37 C37         -1.4866    -1.5118     2.0066 C.ar         1    LIG   0.0000
  38 H            8.1749     1.0096    -0.4097 H            1    LIG   0.0000
  39 H           -0.7602    -2.5315     3.4328 H            1    LIG   0.0000
  40 H           -0.7364    -3.5192     4.7330 H            1    LIG   0.0000
  41 H           -0.4043    -4.1146     3.2491 H            1    LIG   0.0000
  42 H           -4.2246    -3.0256     2.8559 H            1    LIG   0.0000
  43 H           -4.3891    -0.4911     3.2714 H            1    LIG   0.0000
  44 H           -3.9741     2.2179     3.6105 H            1    LIG   0.0000
  45 H           -3.8180     1.2253     0.2412 H            1    LIG   0.0000
  46 H           -5.0245     2.2506    -0.1583 H            1    LIG   0.0000
  47 H           -3.4685     2.7017    -0.3626 H            1    LIG   0.0000
  48 H           -1.3524     1.7851     1.5796 H            1    LIG   0.0000
  49 H            0.5000     1.8660     0.9964 H            1    LIG   0.0000
  50 H            2.5875     3.0718     0.9908 H            1    LIG   0.0000
  51 H            4.9845     3.0779     0.9929 H            1    LIG   0.0000
  52 H            7.0184     1.8183     1.4699 H            1    LIG   0.0000
  53 H            7.0174     0.1854     1.4763 H            1    LIG   0.0000
  54 H            5.6527    -0.2208    -0.9525 H            1    LIG   0.0000
  55 H            7.0081    -1.0233    -0.5217 H            1    LIG   0.0000
  56 H            8.0221    -0.5781    -2.5302 H            1    LIG   0.0000
  57 H            6.5056    -1.0463    -2.9143 H            1    LIG   0.0000
  58 H            5.7763    -1.0656    -4.4825 H            1    LIG   0.0000
  59 H            5.1497    -1.1188    -6.7903 H            1    LIG   0.0000
  60 H            5.4735     0.8004    -8.1787 H            1    LIG   0.0000
  61 H            6.1895     3.0015    -8.4740 H            1    LIG   0.0000
  62 H            5.9872     3.9694    -7.1745 H            1    LIG   0.0000
  63 H            7.4781     3.4318    -7.5680 H            1    LIG   0.0000
  64 H            7.0689     2.8554    -4.9418 H            1    LIG   0.0000
  65 H            6.4073     2.9101    -2.9831 H            1    LIG   0.0000
  66 H            7.9493     2.5338    -2.5993 H            1    LIG   0.0000
  67 H            6.9557     3.0006    -0.5954 H            1    LIG   0.0000
  68 H            5.6165     2.1488    -0.9798 H            1    LIG   0.0000
  69 H            4.9775    -1.0700     1.0069 H            1    LIG   0.0000
  70 H            2.5805    -1.0762     1.0069 H            1    LIG   0.0000
  71 H           -0.9535    -2.3424     1.8455 H            1    LIG   0.0000
@<TRIPOS>BOND
   1        1        2 1
   2        2        3 2
   3        2        4 am
   4        4        5 1
   5        5        6 ar
   6        6        7 ar
   7        7        8 1
   8        8        9 am
   9        9       10 1
  10        9       11 2
  11        7       12 ar
  12       12       13 ar
  13       13       14 1
  14       14       15 2
  15       14       16 am
  16       16       17 1
  17       17       18 ar
  18       18       19 ar
  19       19       20 ar
  20       20       21 1
  21       21       22 1
  22       22       23 1
  23       23       24 1
  24       24       25 1
  25       25       26 1
  26       26       27 ar
  27       27       28 ar
  28       28       29 ar
  29       29       30 ar
  30       30       31 1
  31       30       32 ar
  32       32       26 ar
  33       25       33 1
  34       33       34 1
  35       34       22 1
  36       20       35 ar
  37       35       36 ar
  38       36       17 ar
  39       13       37 ar
  40       37        5 ar
  41       22       38 1
  42        1       39 1
  43        1       40 1
  44        1       41 1
  45        4       42 1
  46        6       43 1
  47        8       44 1
  48       10       45 1
  49       10       46 1
  50       10       47 1
  51       12       48 1
  52       16       49 1
  53       18       50 1
  54       19       51 1
  55       21       52 1
  56       21       53 1
  57       23       54 1
  58       23       55 1
  59       24       56 1
  60       24       57 1
  61       27       58 1
  62       28       59 1
  63       29       60 1
  64       31       61 1
  65       31       62 1
  66       31       63 1
  67       32       64 1
  68       33       65 1
  69       33       66 1
  70       34       67 1
  71       34       68 1
  72       35       69 1
  73       36       70 1
  74       37       71 1

@<TRIPOS>MOLECULE

  71   74
SMALL
USER_CHARGES
@<TRIPOS>ATOM
   1 C1          -2.5500    -4.1680     5.6394 C.3          1    LIG   0.0000
   2 C2          -2.1742    -2.9417     4.8237 C.2          1    LIG   0.0000
   3 O3          -1.2279    -2.2761     5.1422 O.2          1    LIG   0.0000
   4 N4          -2.9158    -2.5963     3.7248 N.am         1    LIG   0.0000
   5 C5          -2.5698    -1.4672     2.9737 C.ar         1    LIG   0.0000
   6 C6          -3.4887    -0.4315     2.8405 C.ar         1    LIG   0.0000
   7 C7          -3.1358     0.6873     2.0931 C.ar         1    LIG   0.0000
   8 N8          -4.0492     1.7384     1.9500 N.am         1    LIG   0.0000
   9 C9          -4.4830     2.1039     0.7029 C.2          1    LIG   0.0000
  10 C10         -5.4748     3.2452     0.5475 C.3          1    LIG   0.0000
  11 O11         -4.0800     1.5230    -0.2667 O.2          1    LIG   0.0000
  12 C12         -1.8889     0.7819     1.4843 C.ar         1    LIG   0.0000
  13 C13         -0.9889    -0.2679     1.6329 C.ar         1    LIG   0.0000
  14 C14          0.3150    -0.1864     1.0049 C.2          1    LIG   0.0000
  15 O15          0.7944    -1.1582     0.4893 O.2          1    LIG   0.0000
  16 N16          1.0000     1.0000     1.0000 N.am         1    LIG   0.0000
  17 C17          2.4002     1.0000     1.0000 C.ar         1    LIG   0.0000
  18 C18          3.0910     2.2078     0.9950 C.ar         1    LIG   0.0000
  19 C19          4.4817     2.2135     0.9959 C.ar         1    LIG   0.0000
  20 C20          5.1646     1.0012     1.0009 C.ar         1    LIG   0.0000
  21 C21          6.6848     1.0002     1.0016 C.3          1    LIG   0.0000
  22 N22          7.1753     0.9945    -0.3840 N.4          1    LIG   1.0000
  23 C23          6.6509    -0.2289    -1.0129 C.3          1    LIG   0.0000
  24 C24          7.0539    -0.3338    -2.4763 C.3          1    LIG   0.0000
  25 N25          6.8411     0.9376    -3.1859 N.pl3        1    LIG   0.0000
  26 C26          6.4712     0.8994    -4.5357 C.ar         1    LIG   0.0000
  27 C27          5.9138    -0.2618    -5.0613 C.ar         1    LIG   0.0000
  28 C28          5.5505    -0.2882    -6.4035 C.ar         1    LIG   0.0000
  29 C29          5.7376     0.8260    -7.2145 C.ar         1    LIG   0.0000
  30 C30          6.2966     1.9766    -6.6680 C.ar         1    LIG   0.0000
  31 C31          6.5057     3.1994    -7.5462 C.3          1    LIG   0.0000
  32 C32          6.6676     2.0251    -5.3284 C.ar         1    LIG   0.0000
  33 C33          6.9952     2.2437    -2.5246 C.3          1    LIG   0.0000
  34 C34          6.6134     2.1799    -1.0529 C.3          1    LIG   0.0000
  35 C35          4.4740    -0.2060     1.0043 C.ar         1    LIG   0.0000
  36 C36          3.0832    -0.2118     1.0041 C.ar         1    LIG   0.0000
  37 C37         -1.3163    -1.3979     2.3750 C.ar         1    LIG   0.0000
  38 H            8.1749     1.0096    -0.4097 H            1    LIG   0.0000
  39 H           -3.3563    -4.6016     5.2372 H            1    LIG   0.0000
  40 H           -1.7879    -4.8154     5.6383 H            1    LIG   0.0000
  41 H           -2.7530    -3.8937     6.5794 H            1    LIG   0.0000
  42 H           -3.7044    -3.1510     3.4594 H            1    LIG   0.0000
  43 H           -4.3876    -0.4903     3.2746 H            1    LIG   0.0000
  44 H           -4.3851     2.2225     2.7580 H            1    LIG   0.0000
  45 H           -5.7027     3.6138     1.4487 H            1    LIG   0.0000
  46 H           -5.0683     3.9658    -0.0143 H            1    LIG   0.0000
  47 H           -6.3057     2.9070     0.1058 H            1    LIG   0.0000
  48 H           -1.6439     1.5904     0.9491 H            1    LIG   0.0000
  49 H            0.5000     1.8660     0.9964 H            1    LIG   0.0000
  50 H            2.5875     3.0718     0.9908 H            1    LIG   0.0000
  51 H            4.9845     3.0779     0.9929 H            1    LIG   0.0000
  52 H            7.0184     1.8183     1.4699 H            1    LIG   0.0000
  53 H            7.0174     0.1854     1.4763 H            1    LIG   0.0000
  54 H            5.6527    -0.2208    -0.9525 H            1    LIG   0.0000
  55 H            7.0081    -1.0233    -0.5217 H            1    LIG   0.0000
  56 H            8.0221    -0.5781    -2.5302 H            1    LIG   0.0000
  57 H            6.5056    -1.0463    -2.9143 H            1    LIG   0.0000
  58 H            5.7763    -1.0656    -4.4825 H            1    LIG   0.0000
  59 H            5.1497    -1.1188    -6.7903 H            1    LIG   0.0000
  60 H            5.4735     0.8004    -8.1787 H            1    LIG   0.0000
  61 H            6.1895     3.0015    -8.4740 H            1    LIG   0.0000
  62 H            5.9872     3.9694    -7.1745 H            1    LIG   0.0000
  63 H            7.4781     3.4318    -7.5680 H            1    LIG   0.0000
  64 H            7.0689     2.8554    -4.9418 H            1    LIG   0.0000
  65 H            6.4073     2.9101    -2.9831 H            1    LIG   0.0000
  66 H            7.9493     2.5338    -2.5993 H            1    LIG   0.0000
  67 H            6.9557     3.0006    -0.5954 H            1    LIG   0.0000
  68 H            5.6165     2.1488    -0.9798 H            1    LIG   0.0000
  69 H            4.9775    -1.0700     1.0069 H            1    LIG   0.0000
  70 H            2.5805    -1.0762     1.0069 H            1    LIG   0.0000
  71 H           -0.6619    -2.1473     2.4762 H            1    LIG   0.0000
@<TRIPOS>BOND
   1        1        2 1
   2        2        3 2
   3        2        4 am
   4        4        5 1
   5        5        6 ar
   6        6        7 ar
   7        7        8 1
   8        8        9 am
   9        9       10 1
  10        9       11 2
  11        7       12 ar
  12       12       13 ar
  13       13       14 1
  14       14       15 2
  15       14       16 am
  16       16       17 1
  17       17       18 ar
  18       18       19 ar
  19       19       20 ar
  20       20       21 1
  21       21       22 1
  22       22       23 1
  23       23       24 1
  24       24       25 1
  25       25       26 1
  26       26       27 ar
  27       27       28 ar
  28       28       29 ar
  29       29       30 ar
  30       30       31 1
  31       30       32 ar
  32       32       26 ar
  33       25       33 1
  34       33       34 1
  35       34       22 1
  36       20       35 ar
  37       35       36 ar
  38       36       17 ar
  39       13       37 ar
  40       37        5 ar
  41       22       38 1
  42        1       39 1
  43        1       40 1
  44        1       41 1
  45        4       42 1
  46        6       43 1
  47        8       44 1
  48       10       45 1
  49       10       46 1
  50       10       47 1
  51       12       48 1
  52       16       49 1
  53       18       50 1
  54       19       51 1
  55       21       52 1
  56       21       53 1
  57       23       54 1
  58       23       55 1
  59       24       56 1
  60       24       57 1
  61       27       58 1
  62       28       59 1
  63       29       60 1
  64       31       61 1
  65       31       62 1
  66       31       63 1
  67       32       64 1
  68       33       65 1
  69       33       66 1
  70       34       67 1
  71       34       68 1
  72       35       69 1
  73       36       70 1
  74       37       71 1

@<TRIPOS>MOLECULE

  71   74
SMALL
USER_CHARGES
@<TRIPOS>ATOM
   1 C1          -2.3299    -3.7742     1.1718 C.3          1    LIG   0.0000
   2 C2          -3.0827    -3.9245    -0.1401 C.2          1    LIG   0.0000
   3 O3          -3.5258    -4.9932    -0.4586 O.2          1    LIG   0.0000
   4 N4          -3.2553    -2.8398    -0.9589 N.am         1    LIG   0.0000
   5 C5          -2.7385    -1.5933    -0.5875 C.ar         1    LIG   0.0000
   6 C6          -3.4896    -0.4472    -0.8266 C.ar         1    LIG   0.0000
   7 C7          -2.9686     0.7872    -0.4531 C.ar         1    LIG   0.0000
   8 N8          -3.7124     1.9500    -0.6865 N.am         1    LIG   0.0000
   9 C9          -3.0857     3.0884    -1.1203 C.2          1    LIG   0.0000
  10 C10         -1.5829     3.0889    -1.3483 C.3          1    LIG   0.0000
  11 O11         -3.7233     4.0851    -1.3204 O.2          1    LIG   0.0000
  12 C12         -1.7195     0.8883     0.1501 C.ar         1    LIG   0.0000
  13 C13         -0.9889    -0.2731     0.3776 C.ar         1    LIG   0.0000
  14 C14          0.3150    -0.1864     1.0049 C.2          1    LIG   0.0000
  15 O15          0.7944    -1.1539     1.5285 O.2          1    LIG   0.0000
  16 N16          1.0000     1.0000     1.0000 N.am         1    LIG   0.0000
  17 C17          2.4002     1.0000     1.0000 C.ar         1    LIG   0.0000
  18 C18          3.0910     2.2078     0.9950 C.ar         1    LIG   0.0000
  19 C19          4.4817     2.2135     0.9959 C.ar         1    LIG   0.0000
  20 C20          5.1646     1.0012     1.0009 C.ar         1    LIG   0.0000
  21 C21          6.6848     1.0002     1.0016 C.3          1    LIG   0.0000
  22 N22          7.1753     0.9945    -0.3840 N.4          1    LIG   1.0000
  23 C23          6.6509    -0.2289    -1.0129 C.3          1    LIG   0.0000
  24 C24          7.0539    -0.3338    -2.4763 C.3          1    LIG   0.0000
  25 N25          6.8411     0.9376    -3.1859 N.pl3        1    LIG   0.0000
  26 C26          6.4712     0.8994    -4.5357 C.ar         1    LIG   0.0000
  27 C27          6.7122    -0.2507    -5.2804 C.ar         1    LIG   0.0000
  28 C28          6.3408    -0.2771    -6.6204 C.ar         1    LIG   0.0000
  29 C29          5.7360     0.8257    -7.2141 C.ar         1    LIG   0.0000
  30 C30          5.5044     1.9652    -6.4506 C.ar         1    LIG   0.0000
  31 C31          4.8446     3.1758    -7.0904 C.3          1    LIG   0.0000
  32 C32          5.8681     2.0137    -5.1090 C.ar         1    LIG   0.0000
  33 C33          6.9952     2.2437    -2.5246 C.3          1    LIG   0.0000
  34 C34          6.6134     2.1799    -1.0529 C.3          1    LIG   0.0000
  35 C35          4.4740    -0.2060     1.0043 C.ar         1    LIG   0.0000
  36 C36          3.0832    -0.2118     1.0041 C.ar         1    LIG   0.0000
  37 C37         -1.4866    -1.5200     0.0141 C.ar         1    LIG   0.0000
  38 H            8.1749     1.0096    -0.4097 H            1    LIG   0.0000
  39 H           -2.0324    -2.8255     1.2787 H            1    LIG   0.0000
  40 H           -2.9311    -4.0226     1.9314 H            1    LIG   0.0000
  41 H           -1.5311    -4.3757     1.1685 H            1    LIG   0.0000
  42 H           -3.7505    -2.9386    -1.8221 H            1    LIG   0.0000
  43 H           -4.3888    -0.5097    -1.2597 H            1    LIG   0.0000
  44 H           -4.7011     1.9496    -0.5365 H            1    LIG   0.0000
  45 H           -1.2131     2.1846    -1.1352 H            1    LIG   0.0000
  46 H           -1.3909     3.3107    -2.3043 H            1    LIG   0.0000
  47 H           -1.1561     3.7718    -0.7554 H            1    LIG   0.0000
  48 H           -1.3532     1.7801     0.4156 H            1    LIG   0.0000
  49 H            0.5000     1.8660     0.9964 H            1    LIG   0.0000
  50 H            2.5875     3.0718     0.9908 H            1    LIG   0.0000
  51 H            4.9845     3.0779     0.9929 H            1    LIG   0.0000
  52 H            7.0184     1.8183     1.4699 H            1    LIG   0.0000
  53 H            7.0174     0.1854     1.4763 H            1    LIG   0.0000
  54 H            5.6527    -0.2208    -0.9525 H            1    LIG   0.0000
  55 H            7.0081    -1.0233    -0.5217 H            1    LIG   0.0000
  56 H            8.0221    -0.5781    -2.5302 H            1    LIG   0.0000
  57 H            6.5056    -1.0463    -2.9143 H            1    LIG   0.0000
  58 H            7.1461    -1.0468    -4.8584 H            1    LIG   0.0000
  59 H            6.5107    -1.0991    -7.1638 H            1    LIG   0.0000
  60 H            5.4709     0.7998    -8.1779 H            1    LIG   0.0000
  61 H            4.6479     2.9795    -8.0510 H            1    LIG   0.0000
  62 H            3.9917     3.3828    -6.6111 H            1    LIG   0.0000
  63 H            5.4600     3.9617    -7.0300 H            1    LIG   0.0000
  64 H            5.6986     2.8360    -4.5658 H            1    LIG   0.0000
  65 H            6.4073     2.9101    -2.9831 H            1    LIG   0.0000
  66 H            7.9493     2.5338    -2.5993 H            1    LIG   0.0000
  67 H            6.9557     3.0006    -0.5954 H            1    LIG   0.0000
  68 H            5.6165     2.1488    -0.9798 H            1    LIG   0.0000
  69 H            4.9775    -1.0700     1.0069 H            1    LIG   0.0000
  70 H            2.5805    -1.0762     1.0069 H            1    LIG   0.0000
  71 H           -0.9536    -2.3493     0.1823 H            1    LIG   0.0000
@<TRIPOS>BOND
   1        1        2 1
   2        2        3 2
   3        2        4 am
   4        4        5 1
   5        5        6 ar
   6        6        7 ar
   7        7        8 1
   8        8        9 am
   9        9       10 1
  10        9       11 2
  11        7       12 ar
  12       12       13 ar
  13       13       14 1
  14       14       15 2
  15       14       16 am
  16       16       17 1
  17       17       18 ar
  18       18       19 ar
  19       19       20 ar
  20       20       21 1
  21       21       22 1
  22       22       23 1
  23       23       24 1
  24       24       25 1
  25       25       26 1
  26       26       27 ar
  27       27       28 ar
  28       28       29 ar
  29       29       30 ar
  30       30       31 1
  31       30       32 ar
  32       32       26 ar
  33       25       33 1
  34       33       34 1
  35       34       22 1
  36       20       35 ar
  37       35       36 ar
  38       36       17 ar
  39       13       37 ar
  40       37        5 ar
  41       22       38 1
  42        1       39 1
  43        1       40 1
  44        1       41 1
  45        4       42 1
  46        6       43 1
  47        8       44 1
  48       10       45 1
  49       10       46 1
  50       10       47 1
  51       12       48 1
  52       16       49 1
  53       18       50 1
  54       19       51 1
  55       21       52 1
  56       21       53 1
  57       23       54 1
  58       23       55 1
  59       24       56 1
  60       24       57 1
  61       27       58 1
  62       28       59 1
  63       29       60 1
  64       31       61 1
  65       31       62 1
  66       31       63 1
  67       32       64 1
  68       33       65 1
  69       33       66 1
  70       34       67 1
  71       34       68 1
  72       35       69 1
  73       36       70 1
  74       37       71 1

@<TRIPOS>MOLECULE

  71   74
SMALL
USER_CHARGES
@<TRIPOS>ATOM
   1 C1          -1.2703    -3.1320    -2.4570 C.3          1    LIG   0.0000
   2 C2          -2.5804    -3.6200    -1.8603 C.2          1    LIG   0.0000
   3 O3          -3.0235    -4.6888    -2.1789 O.2          1    LIG   0.0000
   4 N4          -3.2553    -2.8398    -0.9589 N.am         1    LIG   0.0000
   5 C5          -2.7385    -1.5933    -0.5875 C.ar         1    LIG   0.0000
   6 C6          -3.4896    -0.4472    -0.8266 C.ar         1    LIG   0.0000
   7 C7          -2.9686     0.7872    -0.4531 C.ar         1    LIG   0.0000
   8 N8          -3.7124     1.9500    -0.6865 N.am         1    LIG   0.0000
   9 C9          -4.0803     2.7500     0.3631 C.2          1    LIG   0.0000
  10 C10         -3.6810     2.3750     1.7809 C.3          1    LIG   0.0000
  11 O11         -4.7179     3.7467     0.1630 O.2          1    LIG   0.0000
  12 C12         -1.7195     0.8883     0.1501 C.ar         1    LIG   0.0000
  13 C13         -0.9889    -0.2731     0.3776 C.ar         1    LIG   0.0000
  14 C14          0.3150    -0.1864     1.0049 C.2          1    LIG   0.0000
  15 O15          0.7944    -1.1539     1.5285 O.2          1    LIG   0.0000
  16 N16          1.0000     1.0000     1.0000 N.am         1    LIG   0.0000
  17 C17          2.4002     1.0000     1.0000 C.ar         1    LIG   0.0000
  18 C18          3.0910     2.2078     0.9950 C.ar         1    LIG   0.0000
  19 C19          4.4817     2.2135     0.9959 C.ar         1    LIG   0.0000
  20 C20          5.1646     1.0012     1.0009 C.ar         1    LIG   0.0000
  21 C21          6.6848     1.0002     1.0016 C.3          1    LIG   0.0000
  22 N22          7.1753     0.9945    -0.3840 N.4          1    LIG   1.0000
  23 C23          6.6509    -0.2289    -1.0129 C.3          1    LIG   0.0000
  24 C24          7.0539    -0.3338    -2.4763 C.3          1    LIG   0.0000
  25 N25          6.8411     0.9376    -3.1859 N.pl3        1    LIG   0.0000
  26 C26          6.4712     0.8994    -4.5357 C.ar         1    LIG   0.0000
  27 C27          6.7122    -0.2507    -5.2804 C.ar         1    LIG   0.0000
  28 C28          6.3408    -0.2771    -6.6204 C.ar         1    LIG   0.0000
  29 C29          5.7360     0.8257    -7.2141 C.ar         1    LIG   0.0000
  30 C30          5.5044     1.9652    -6.4506 C.ar         1    LIG   0.0000
  31 C31          4.8446     3.1758    -7.0904 C.3          1    LIG   0.0000
  32 C32          5.8681     2.0137    -5.1090 C.ar         1    LIG   0.0000
  33 C33          6.9952     2.2437    -2.5246 C.3          1    LIG   0.0000
  34 C34          6.6134     2.1799    -1.0529 C.3          1    LIG   0.0000
  35 C35          4.4740    -0.2060     1.0043 C.ar         1    LIG   0.0000
  36 C36          3.0832    -0.2118     1.0041 C.ar         1    LIG   0.0000
  37 C37         -1.4866    -1.5200     0.0141 C.ar         1    LIG   0.0000
  38 H            8.1749     1.0096    -0.4097 H            1    LIG   0.0000
  39 H           -1.0502    -2.2302    -2.0852 H            1    LIG   0.0000
  40 H           -0.5395    -3.7747    -2.2272 H            1    LIG   0.0000
  41 H           -1.3594    -3.0701    -3.4511 H            1    LIG   0.0000
  42 H           -4.1172    -3.1608    -0.5664 H            1    LIG   0.0000
  43 H           -4.3888    -0.5097    -1.2597 H            1    LIG   0.0000
  44 H           -3.9751     2.1967    -1.6193 H            1    LIG   0.0000
  45 H           -3.1580     1.5227     1.7656 H            1    LIG   0.0000
  46 H           -3.1194     3.1037     2.1728 H            1    LIG   0.0000
  47 H           -4.5028     2.2518     2.3372 H            1    LIG   0.0000
  48 H           -1.3532     1.7801     0.4156 H            1    LIG   0.0000
  49 H            0.5000     1.8660     0.9964 H            1    LIG   0.0000
  50 H            2.5875     3.0718     0.9908 H            1    LIG   0.0000
  51 H            4.9845     3.0779     0.9929 H            1    LIG   0.0000
  52 H            7.0184     1.8183     1.4699 H            1    LIG   0.0000
  53 H            7.0174     0.1854     1.4763 H            1    LIG   0.0000
  54 H            5.6527    -0.2208    -0.9525 H            1    LIG   0.0000
  55 H            7.0081    -1.0233    -0.5217 H            1    LIG   0.0000
  56 H            8.0221    -0.5781    -2.5302 H            1    LIG   0.0000
  57 H            6.5056    -1.0463    -2.9143 H            1    LIG   0.0000
  58 H            7.1461    -1.0468    -4.8584 H            1    LIG   0.0000
  59 H            6.5107    -1.0991    -7.1638 H            1    LIG   0.0000
  60 H            5.4709     0.7998    -8.1779 H            1    LIG   0.0000
  61 H            4.6479     2.9795    -8.0510 H            1    LIG   0.0000
  62 H            3.9917     3.3828    -6.6111 H            1    LIG   0.0000
  63 H            5.4600     3.9617    -7.0300 H            1    LIG   0.0000
  64 H            5.6986     2.8360    -4.5658 H            1    LIG   0.0000
  65 H            6.4073     2.9101    -2.9831 H            1    LIG   0.0000
  66 H            7.9493     2.5338    -2.5993 H            1    LIG   0.0000
  67 H            6.9557     3.0006    -0.5954 H            1    LIG   0.0000
  68 H            5.6165     2.1488    -0.9798 H            1    LIG   0.0000
  69 H            4.9775    -1.0700     1.0069 H            1    LIG   0.0000
  70 H            2.5805    -1.0762     1.0069 H            1    LIG   0.0000
  71 H           -0.9536    -2.3493     0.1823 H            1    LIG   0.0000
@<TRIPOS>BOND
   1        1        2 1
   2        2        3 2
   3        2        4 am
   4        4        5 1
   5        5        6 ar
   6        6        7 ar
   7        7        8 1
   8        8        9 am
   9        9       10 1
  10        9       11 2
  11        7       12 ar
  12       12       13 ar
  13       13       14 1
  14       14       15 2
  15       14       16 am
  16       16       17 1
  17       17       18 ar
  18       18       19 ar
  19       19       20 ar
  20       20       21 1
  21       21       22 1
  22       22       23 1
  23       23       24 1
  24       24       25 1
  25       25       26 1
  26       26       27 ar
  27       27       28 ar
  28       28       29 ar
  29       29       30 ar
  30       30       31 1
  31       30       32 ar
  32       32       26 ar
  33       25       33 1
  34       33       34 1
  35       34       22 1
  36       20       35 ar
  37       35       36 ar
  38       36       17 ar
  39       13       37 ar
  40       37        5 ar
  41       22       38 1
  42        1       39 1
  43        1       40 1
  44        1       41 1
  45        4       42 1
  46        6       43 1
  47        8       44 1
  48       10       45 1
  49       10       46 1
  50       10       47 1
  51       12       48 1
  52       16       49 1
  53       18       50 1
  54       19       51 1
  55       21       52 1
  56       21       53 1
  57       23       54 1
  58       23       55 1
  59       24       56 1
  60       24       57 1
  61       27       58 1
  62       28       59 1
  63       29       60 1
  64       31       61 1
  65       31       62 1
  66       31       63 1
  67       32       64 1
  68       33       65 1
  69       33       66 1
  70       34       67 1
  71       34       68 1
  72       35       69 1
  73       36       70 1
  74       37       71 1

