@<TRIPOS>MOLECULE
*****
 71 74 0 0 0
SMALL
USER_CHARGES

@<TRIPOS>ATOM
      1 C1         -2.8396   -5.2473   -1.5071 C.3     1  LIG1        0.0000
      2 C2         -2.5284   -3.9783   -0.7305 C.2     1  LIG1        0.0000
      3 O3         -1.6460   -3.9738    0.0828 O.2     1  LIG1        0.0000
      4 N4         -3.2553   -2.8398   -0.9589 N.am    1  LIG1        0.0000
      5 C5         -2.7385   -1.5933   -0.5875 C.3     1  LIG1        0.0000
      6 C6         -3.4896   -0.4472   -0.8266 C.3     1  LIG1        0.0000
      7 C7         -2.9686    0.7872   -0.4531 C.3     1  LIG1        0.0000
      8 N8         -3.7124    1.9500   -0.6865 N.am    1  LIG1        0.0000
      9 C9         -3.2078    3.1705   -0.3222 C.2     1  LIG1        0.0000
     10 C10        -4.1504    4.2939    0.0776 C.3     1  LIG1        0.0000
     11 O11        -2.0217    3.3526   -0.3188 O.2     1  LIG1        0.0000
     12 C12        -1.7195    0.8883    0.1501 C.3     1  LIG1        0.0000
     13 C13        -0.9889   -0.2731    0.3776 C.3     1  LIG1        0.0000
     14 C14         0.3150   -0.1864    1.0049 C.2     1  LIG1        0.0000
     15 O15         0.7944   -1.1539    1.5285 O.2     1  LIG1        0.0000
     16 N16         1.0000    1.0000    1.0000 N.am    1  LIG1        0.0000
     17 C17         2.4002    1.0000    1.0000 C.3     1  LIG1        0.0000
     18 C18         3.0910    2.2078    0.9950 C.3     1  LIG1        0.0000
     19 C19         4.4817    2.2135    0.9959 C.3     1  LIG1        0.0000
     20 C20         5.1646    1.0012    1.0009 C.3     1  LIG1        0.0000
     21 C21         6.6848    1.0002    1.0016 C.3     1  LIG1        0.0000
     22 N22         7.1753    0.9945   -0.3840 N.4     1  LIG1        1.0000
     23 C23         6.6509   -0.2289   -1.0129 C.3     1  LIG1        0.0000
     24 C24         7.0539   -0.3338   -2.4763 C.3     1  LIG1        0.0000
     25 N25         6.8411    0.9376   -3.1859 N.pl3   1  LIG1        0.0000
     26 C26         6.4712    0.8994   -4.5357 C.3     1  LIG1        0.0000
     27 C27         6.3145   -0.3292   -5.1691 C.3     1  LIG1        0.0000
     28 C28         5.9471   -0.3549   -6.5103 C.3     1  LIG1        0.0000
     29 C29         5.7368    0.8260   -7.2143 C.3     1  LIG1        0.0000
     30 C30         5.8990    2.0433   -6.5609 C.3     1  LIG1        0.0000
     31 C31         5.6720    3.3394   -7.3218 C.3     1  LIG1        0.0000
     32 C32         6.2664    2.0925   -5.2204 C.3     1  LIG1        0.0000
     33 C33         6.9952    2.2437   -2.5246 C.3     1  LIG1        0.0000
     34 C34         6.6134    2.1799   -1.0529 C.3     1  LIG1        0.0000
     35 C35         4.4740   -0.2060    1.0043 C.3     1  LIG1        0.0000
     36 C36         3.0832   -0.2118    1.0041 C.3     1  LIG1        0.0000
     37 C37        -1.4866   -1.5200    0.0141 C.3     1  LIG1        0.0000
     38 H           8.1749    1.0096   -0.4097 H       1  LIG1        0.0000
     39 H          -3.5969   -5.0753   -2.1371 H       1  LIG1        0.0000
     40 H          -2.0317   -5.5274   -2.0257 H       1  LIG1        0.0000
     41 H          -3.0949   -5.9742   -0.8696 H       1  LIG1        0.0000
     42 H          -4.1551   -2.8993   -1.3911 H       1  LIG1        0.0000
     43 H          -4.3888   -0.5097   -1.2597 H       1  LIG1        0.0000
     44 H          -4.6119    1.8897   -1.1191 H       1  LIG1        0.0000
     45 H          -5.0956    3.9727    0.0190 H       1  LIG1        0.0000
     46 H          -3.9522    4.5772    1.0159 H       1  LIG1        0.0000
     47 H          -4.0235    5.0708   -0.5390 H       1  LIG1        0.0000
     48 H          -1.3532    1.7801    0.4156 H       1  LIG1        0.0000
     49 H           0.5000    1.8660    0.9964 H       1  LIG1        0.0000
     50 H           2.5875    3.0718    0.9908 H       1  LIG1        0.0000
     51 H           4.9845    3.0779    0.9929 H       1  LIG1        0.0000
     52 H           7.0184    1.8183    1.4699 H       1  LIG1        0.0000
     53 H           7.0174    0.1854    1.4763 H       1  LIG1        0.0000
     54 H           5.6527   -0.2208   -0.9525 H       1  LIG1        0.0000
     55 H           7.0081   -1.0233   -0.5217 H       1  LIG1        0.0000
     56 H           8.0221   -0.5781   -2.5302 H       1  LIG1        0.0000
     57 H           6.5056   -1.0463   -2.9143 H       1  LIG1        0.0000
     58 H           6.4637   -1.1814   -4.6676 H       1  LIG1        0.0000
     59 H           5.8328   -1.2333   -6.9742 H       1  LIG1        0.0000
     60 H           5.4721    0.8003   -8.1783 H       1  LIG1        0.0000
     61 H           5.4158    3.1314   -8.2657 H       1  LIG1        0.0000
     62 H           4.9382    3.8588   -6.8839 H       1  LIG1        0.0000
     63 H           6.5128    3.8808   -7.3162 H       1  LIG1        0.0000
     64 H           6.3812    2.9710   -4.7566 H       1  LIG1        0.0000
     65 H           6.4073    2.9101   -2.9831 H       1  LIG1        0.0000
     66 H           7.9493    2.5338   -2.5993 H       1  LIG1        0.0000
     67 H           6.9557    3.0006   -0.5954 H       1  LIG1        0.0000
     68 H           5.6165    2.1488   -0.9798 H       1  LIG1        0.0000
     69 H           4.9775   -1.0700    1.0069 H       1  LIG1        0.0000
     70 H           2.5805   -1.0762    1.0069 H       1  LIG1        0.0000
     71 H          -0.9536   -2.3493    0.1823 H       1  LIG1        0.0000
@<TRIPOS>UNITY_ATOM_ATTR
22 1
charge 1
@<TRIPOS>BOND
     1     1     2    1
     2     2     3    2
     3     2     4   am
     4     4     5    1
     5     5     6   ar
     6     6     7   ar
     7     7     8    1
     8     8     9   am
     9     9    10    1
    10     9    11    2
    11     7    12   ar
    12    12    13   ar
    13    13    14    1
    14    14    15    2
    15    14    16   am
    16    16    17    1
    17    17    18   ar
    18    18    19   ar
    19    19    20   ar
    20    20    21    1
    21    21    22    1
    22    22    23    1
    23    23    24    1
    24    24    25    1
    25    25    26    1
    26    26    27   ar
    27    27    28   ar
    28    28    29   ar
    29    29    30   ar
    30    30    31    1
    31    30    32   ar
    32    32    26   ar
    33    25    33    1
    34    33    34    1
    35    34    22    1
    36    20    35   ar
    37    35    36   ar
    38    36    17   ar
    39    13    37   ar
    40    37     5   ar
    41    22    38    1
    42     1    39    1
    43     1    40    1
    44     1    41    1
    45     4    42    1
    46     6    43    1
    47     8    44    1
    48    10    45    1
    49    10    46    1
    50    10    47    1
    51    12    48    1
    52    16    49    1
    53    18    50    1
    54    19    51    1
    55    21    52    1
    56    21    53    1
    57    23    54    1
    58    23    55    1
    59    24    56    1
    60    24    57    1
    61    27    58    1
    62    28    59    1
    63    29    60    1
    64    31    61    1
    65    31    62    1
    66    31    63    1
    67    32    64    1
    68    33    65    1
    69    33    66    1
    70    34    67    1
    71    34    68    1
    72    35    69    1
    73    36    70    1
    74    37    71    1
