@<TRIPOS>MOLECULE
*****
 71 74 0 0 0
SMALL
USER_CHARGES

@<TRIPOS>ATOM
      1 C1         -2.0009   -3.9627    1.5264 C.3     1  LIG1        0.0000
      2 C2         -3.4871   -3.6848    1.3708 C.2     1  LIG1        0.0000
      3 O3         -4.2373   -4.5760    1.0831 O.2     1  LIG1        0.0000
      4 N4         -3.9702   -2.4166    1.5590 N.am    1  LIG1        0.0000
      5 C5         -3.0952   -1.3771    1.8946 C.3     1  LIG1        0.0000
      6 C6         -3.4921   -0.4307    2.8334 C.3     1  LIG1        0.0000
      7 C7         -2.6157    0.5983    3.1616 C.3     1  LIG1        0.0000
      8 N8         -3.0000    1.5584    4.1051 N.am    1  LIG1        0.0000
      9 C9         -3.0637    2.8802    3.7504 C.2     1  LIG1        0.0000
     10 C10        -2.7172    3.3042    2.3325 C.3     1  LIG1        0.0000
     11 O11        -3.3932    3.7032    4.5592 O.2     1  LIG1        0.0000
     12 C12        -1.3608    0.6912    2.5689 C.3     1  LIG1        0.0000
     13 C13        -0.9889   -0.2679    1.6329 C.3     1  LIG1        0.0000
     14 C14         0.3150   -0.1864    1.0049 C.2     1  LIG1        0.0000
     15 O15         0.7944   -1.1582    0.4893 O.2     1  LIG1        0.0000
     16 N16         1.0000    1.0000    1.0000 N.am    1  LIG1        0.0000
     17 C17         2.4002    1.0000    1.0000 C.3     1  LIG1        0.0000
     18 C18         3.0910    2.2078    0.9950 C.3     1  LIG1        0.0000
     19 C19         4.4817    2.2135    0.9959 C.3     1  LIG1        0.0000
     20 C20         5.1646    1.0012    1.0009 C.3     1  LIG1        0.0000
     21 C21         6.6848    1.0002    1.0016 C.3     1  LIG1        0.0000
     22 N22         7.1753    0.9945   -0.3840 N.4     1  LIG1        1.0000
     23 C23         6.6509   -0.2289   -1.0129 C.3     1  LIG1        0.0000
     24 C24         7.0539   -0.3338   -2.4763 C.3     1  LIG1        0.0000
     25 N25         6.8411    0.9376   -3.1859 N.pl3   1  LIG1        0.0000
     26 C26         6.4712    0.8994   -4.5357 C.3     1  LIG1        0.0000
     27 C27         5.9138   -0.2618   -5.0613 C.3     1  LIG1        0.0000
     28 C28         5.5505   -0.2882   -6.4035 C.3     1  LIG1        0.0000
     29 C29         5.7376    0.8260   -7.2145 C.3     1  LIG1        0.0000
     30 C30         6.2966    1.9766   -6.6680 C.3     1  LIG1        0.0000
     31 C31         6.5057    3.1994   -7.5462 C.3     1  LIG1        0.0000
     32 C32         6.6676    2.0251   -5.3284 C.3     1  LIG1        0.0000
     33 C33         6.9952    2.2437   -2.5246 C.3     1  LIG1        0.0000
     34 C34         6.6134    2.1799   -1.0529 C.3     1  LIG1        0.0000
     35 C35         4.4740   -0.2060    1.0043 C.3     1  LIG1        0.0000
     36 C36         3.0832   -0.2118    1.0041 C.3     1  LIG1        0.0000
     37 C37        -1.8460   -1.3073    1.2868 C.3     1  LIG1        0.0000
     38 H           8.1749    1.0096   -0.4097 H       1  LIG1        0.0000
     39 H          -1.5266   -3.1155    1.7658 H       1  LIG1        0.0000
     40 H          -1.8621   -4.6384    2.2504 H       1  LIG1        0.0000
     41 H          -1.6361   -4.3171    0.6654 H       1  LIG1        0.0000
     42 H          -4.9480   -2.2338    1.4567 H       1  LIG1        0.0000
     43 H          -4.3923   -0.4891    3.2651 H       1  LIG1        0.0000
     44 H          -3.2280    1.2795    5.0379 H       1  LIG1        0.0000
     45 H          -2.4664    2.4986    1.7956 H       1  LIG1        0.0000
     46 H          -3.5090    3.7498    1.9149 H       1  LIG1        0.0000
     47 H          -1.9481    3.9429    2.3541 H       1  LIG1        0.0000
     48 H          -0.7372    1.4343    2.8114 H       1  LIG1        0.0000
     49 H           0.5000    1.8660    0.9964 H       1  LIG1        0.0000
     50 H           2.5875    3.0718    0.9908 H       1  LIG1        0.0000
     51 H           4.9845    3.0779    0.9929 H       1  LIG1        0.0000
     52 H           7.0184    1.8183    1.4699 H       1  LIG1        0.0000
     53 H           7.0174    0.1854    1.4763 H       1  LIG1        0.0000
     54 H           5.6527   -0.2208   -0.9525 H       1  LIG1        0.0000
     55 H           7.0081   -1.0233   -0.5217 H       1  LIG1        0.0000
     56 H           8.0221   -0.5781   -2.5302 H       1  LIG1        0.0000
     57 H           6.5056   -1.0463   -2.9143 H       1  LIG1        0.0000
     58 H           5.7763   -1.0656   -4.4825 H       1  LIG1        0.0000
     59 H           5.1497   -1.1188   -6.7903 H       1  LIG1        0.0000
     60 H           5.4735    0.8004   -8.1787 H       1  LIG1        0.0000
     61 H           6.1895    3.0015   -8.4740 H       1  LIG1        0.0000
     62 H           5.9872    3.9694   -7.1745 H       1  LIG1        0.0000
     63 H           7.4781    3.4318   -7.5680 H       1  LIG1        0.0000
     64 H           7.0689    2.8554   -4.9418 H       1  LIG1        0.0000
     65 H           6.4073    2.9101   -2.9831 H       1  LIG1        0.0000
     66 H           7.9493    2.5338   -2.5993 H       1  LIG1        0.0000
     67 H           6.9557    3.0006   -0.5954 H       1  LIG1        0.0000
     68 H           5.6165    2.1488   -0.9798 H       1  LIG1        0.0000
     69 H           4.9775   -1.0700    1.0069 H       1  LIG1        0.0000
     70 H           2.5805   -1.0762    1.0069 H       1  LIG1        0.0000
     71 H          -1.5690   -1.9922    0.6130 H       1  LIG1        0.0000
@<TRIPOS>UNITY_ATOM_ATTR
22 1
charge 1
@<TRIPOS>BOND
     1     1     2    1
     2     2     3    2
     3     2     4   am
     4     4     5    1
     5     5     6   ar
     6     6     7   ar
     7     7     8    1
     8     8     9   am
     9     9    10    1
    10     9    11    2
    11     7    12   ar
    12    12    13   ar
    13    13    14    1
    14    14    15    2
    15    14    16   am
    16    16    17    1
    17    17    18   ar
    18    18    19   ar
    19    19    20   ar
    20    20    21    1
    21    21    22    1
    22    22    23    1
    23    23    24    1
    24    24    25    1
    25    25    26    1
    26    26    27   ar
    27    27    28   ar
    28    28    29   ar
    29    29    30   ar
    30    30    31    1
    31    30    32   ar
    32    32    26   ar
    33    25    33    1
    34    33    34    1
    35    34    22    1
    36    20    35   ar
    37    35    36   ar
    38    36    17   ar
    39    13    37   ar
    40    37     5   ar
    41    22    38    1
    42     1    39    1
    43     1    40    1
    44     1    41    1
    45     4    42    1
    46     6    43    1
    47     8    44    1
    48    10    45    1
    49    10    46    1
    50    10    47    1
    51    12    48    1
    52    16    49    1
    53    18    50    1
    54    19    51    1
    55    21    52    1
    56    21    53    1
    57    23    54    1
    58    23    55    1
    59    24    56    1
    60    24    57    1
    61    27    58    1
    62    28    59    1
    63    29    60    1
    64    31    61    1
    65    31    62    1
    66    31    63    1
    67    32    64    1
    68    33    65    1
    69    33    66    1
    70    34    67    1
    71    34    68    1
    72    35    69    1
    73    36    70    1
    74    37    71    1
