@<TRIPOS>MOLECULE

  51   54
SMALL
USER_CHARGES
@<TRIPOS>ATOM
   1 C1          -5.1665     3.0663     2.6017 C.3          1    LIG   0.0000
   2 C2          -4.4952     1.7036     2.5489 C.3          1    LIG   0.0000
   3 N3          -3.3141     1.7725     1.6754 N.pl3        1    LIG   0.0000
   4 C4          -2.0571     2.0823     2.0990 C.2          1    LIG   0.0000
   5 C5          -1.2542     2.0386     1.0000 C.2          1    LIG   0.0000
   6 C6           0.2400     2.3164     1.0000 C.3          1    LIG   0.0000
   7 C7           1.0000     1.0000     1.0000 C.2          1    LIG   0.0000
   8 O8           0.4000    -0.0392     1.0000 O.2          1    LIG   0.0000
   9 N9           2.3700     1.0000     1.0000 N.am         1    LIG   0.0000
  10 C10          3.0707    -0.2137     1.0000 C.ar         1    LIG   0.0000
  11 C11          2.4759    -1.3108     1.6145 C.ar         1    LIG   0.0000
  12 C12          3.1273    -2.5392     1.6436 C.ar         1    LIG   0.0000
  13 C13          4.3807    -2.6761     1.0560 C.ar         1    LIG   0.0000
  14 O14          4.9715    -3.8906     1.1098 O.3          1    LIG   0.0000
  15 C15          4.2295    -4.9024     1.7747 C.3          1    LIG   0.0000
  16 C16          5.0159    -6.2030     1.7551 C.2          1    LIG   0.0000
  17 O17          6.1373    -6.2471     1.2045 O.co2        1    LIG   0.0000
  18 O18          4.5565    -7.1956     2.2725 O.co2        1    LIG  -1.0000
  19 C19          4.9849    -1.5831     0.4369 C.ar         1    LIG   0.0000
  20 C20          6.2386    -1.6924    -0.1600 C.ar         1    LIG   0.0000
  21 C21          6.8505    -0.6082    -0.7804 C.ar         1    LIG   0.0000
  22 C22          6.1965     0.6194    -0.8064 C.ar         1    LIG   0.0000
  23 C23          4.9453     0.7277    -0.2094 C.ar         1    LIG   0.0000
  24 C24          4.3268    -0.3553     0.4128 C.ar         1    LIG   0.0000
  25 C25         -2.0224     1.6923    -0.1348 C.ar         1    LIG   0.0000
  26 C26         -1.7554     1.4945    -1.4866 C.ar         1    LIG   0.0000
  27 C27         -2.7604     1.1396    -2.3811 C.ar         1    LIG   0.0000
  28 C28         -4.0596     0.9781    -1.9108 C.ar         1    LIG   0.0000
  29 C29         -4.3189     1.1772    -0.5588 C.ar         1    LIG   0.0000
  30 C30         -3.3080     1.5328     0.3302 C.ar         1    LIG   0.0000
  31 H           -5.9696     3.0194     3.1957 H            1    LIG   0.0000
  32 H           -4.5232     3.7410     2.9634 H            1    LIG   0.0000
  33 H           -5.4484     3.3349     1.6806 H            1    LIG   0.0000
  34 H           -4.2133     1.4350     3.4700 H            1    LIG   0.0000
  35 H           -5.1384     1.0288     2.1871 H            1    LIG   0.0000
  36 H           -1.7784     2.2995     3.0345 H            1    LIG   0.0000
  37 H            0.4816     2.8407     0.1835 H            1    LIG   0.0000
  38 H            0.4816     2.8407     1.8165 H            1    LIG   0.0000
  39 H            2.8700     1.8660     1.0000 H            1    LIG   0.0000
  40 H            1.5749    -1.2156     2.0377 H            1    LIG   0.0000
  41 H            2.6945    -3.3241     2.0871 H            1    LIG   0.0000
  42 H            3.3546    -5.0348     1.3088 H            1    LIG   0.0000
  43 H            4.0645    -4.6269     2.7217 H            1    LIG   0.0000
  44 H            6.7112    -2.5735    -0.1420 H            1    LIG   0.0000
  45 H            7.7509    -0.7100    -1.2032 H            1    LIG   0.0000
  46 H            6.6194     1.4112    -1.2472 H            1    LIG   0.0000
  47 H            4.4748     1.6099    -0.2272 H            1    LIG   0.0000
  48 H           -0.8205     1.6100    -1.8223 H            1    LIG   0.0000
  49 H           -2.5515     1.0024    -3.3494 H            1    LIG   0.0000
  50 H           -4.7969     0.7223    -2.5361 H            1    LIG   0.0000
  51 H           -5.2519     1.0624    -0.2178 H            1    LIG   0.0000
@<TRIPOS>BOND
   1        1        2 1
   2        2        3 1
   3        3        4 1
   4        4        5 2
   5        5        6 1
   6        6        7 1
   7        7        8 2
   8        7        9 am
   9        9       10 1
  10       10       11 ar
  11       11       12 ar
  12       12       13 ar
  13       13       14 1
  14       14       15 1
  15       15       16 1
  16       16       17 ar
  17       16       18 ar
  18       13       19 ar
  19       19       20 ar
  20       20       21 ar
  21       21       22 ar
  22       22       23 ar
  23       23       24 ar
  24       24       10 ar
  25       24       19 ar
  26        5       25 1
  27       25       26 ar
  28       26       27 ar
  29       27       28 ar
  30       28       29 ar
  31       29       30 ar
  32       30       25 ar
  33       30        3 1
  34        1       31 1
  35        1       32 1
  36        1       33 1
  37        2       34 1
  38        2       35 1
  39        4       36 1
  40        6       37 1
  41        6       38 1
  42        9       39 1
  43       11       40 1
  44       12       41 1
  45       15       42 1
  46       15       43 1
  47       20       44 1
  48       21       45 1
  49       22       46 1
  50       23       47 1
  51       26       48 1
  52       27       49 1
  53       28       50 1
  54       29       51 1

@<TRIPOS>MOLECULE

  51   54
SMALL
USER_CHARGES
@<TRIPOS>ATOM
   1 C1          -4.6551     0.3148    -1.0951 C.3          1    LIG   0.0000
   2 C2          -4.4988     1.7233    -0.5454 C.3          1    LIG   0.0000
   3 N3          -3.3157     1.7808     0.3261 N.pl3        1    LIG   0.0000
   4 C4          -2.0586     2.0902    -0.0976 C.2          1    LIG   0.0000
   5 C5          -1.2542     2.0386     1.0000 C.2          1    LIG   0.0000
   6 C6           0.2400     2.3164     1.0000 C.3          1    LIG   0.0000
   7 C7           1.0000     1.0000     1.0000 C.2          1    LIG   0.0000
   8 O8           0.4000    -0.0392     1.0000 O.2          1    LIG   0.0000
   9 N9           2.3700     1.0000     1.0000 N.am         1    LIG   0.0000
  10 C10          3.0707    -0.2137     1.0000 C.ar         1    LIG   0.0000
  11 C11          2.4759    -1.3108     1.6145 C.ar         1    LIG   0.0000
  12 C12          3.1273    -2.5392     1.6436 C.ar         1    LIG   0.0000
  13 C13          4.3807    -2.6761     1.0560 C.ar         1    LIG   0.0000
  14 O14          4.9715    -3.8906     1.1098 O.3          1    LIG   0.0000
  15 C15          4.2295    -4.9024     1.7747 C.3          1    LIG   0.0000
  16 C16          5.0159    -6.2030     1.7551 C.2          1    LIG   0.0000
  17 O17          6.1373    -6.2471     1.2045 O.co2        1    LIG   0.0000
  18 O18          4.5565    -7.1956     2.2725 O.co2        1    LIG  -1.0000
  19 C19          4.9849    -1.5831     0.4369 C.ar         1    LIG   0.0000
  20 C20          6.2386    -1.6924    -0.1600 C.ar         1    LIG   0.0000
  21 C21          6.8505    -0.6082    -0.7804 C.ar         1    LIG   0.0000
  22 C22          6.1965     0.6194    -0.8064 C.ar         1    LIG   0.0000
  23 C23          4.9453     0.7277    -0.2094 C.ar         1    LIG   0.0000
  24 C24          4.3268    -0.3553     0.4128 C.ar         1    LIG   0.0000
  25 C25         -2.0224     1.6923     2.1348 C.ar         1    LIG   0.0000
  26 C26         -1.7571     1.5039     3.4883 C.ar         1    LIG   0.0000
  27 C27         -2.7648     1.1635     4.3854 C.ar         1    LIG   0.0000
  28 C28         -4.0656     1.0102     3.9166 C.ar         1    LIG   0.0000
  29 C29         -4.3231     1.2002     2.5630 C.ar         1    LIG   0.0000
  30 C30         -3.3094     1.5403     1.6711 C.ar         1    LIG   0.0000
  31 H           -5.4597     0.2757    -1.6878 H            1    LIG   0.0000
  32 H           -3.8410     0.0703    -1.6218 H            1    LIG   0.0000
  33 H           -4.7676    -0.3282    -0.3375 H            1    LIG   0.0000
  34 H           -4.3863     2.3662    -1.3030 H            1    LIG   0.0000
  35 H           -5.3130     1.9678    -0.0187 H            1    LIG   0.0000
  36 H           -1.7807     2.3119    -1.0323 H            1    LIG   0.0000
  37 H            0.4816     2.8407     0.1835 H            1    LIG   0.0000
  38 H            0.4816     2.8407     1.8165 H            1    LIG   0.0000
  39 H            2.8700     1.8660     1.0000 H            1    LIG   0.0000
  40 H            1.5749    -1.2156     2.0377 H            1    LIG   0.0000
  41 H            2.6945    -3.3241     2.0871 H            1    LIG   0.0000
  42 H            3.3546    -5.0348     1.3088 H            1    LIG   0.0000
  43 H            4.0645    -4.6269     2.7217 H            1    LIG   0.0000
  44 H            6.7112    -2.5735    -0.1420 H            1    LIG   0.0000
  45 H            7.7509    -0.7100    -1.2032 H            1    LIG   0.0000
  46 H            6.6194     1.4112    -1.2472 H            1    LIG   0.0000
  47 H            4.4748     1.6099    -0.2272 H            1    LIG   0.0000
  48 H           -0.8216     1.6157     3.8233 H            1    LIG   0.0000
  49 H           -2.5567     1.0307     5.3544 H            1    LIG   0.0000
  50 H           -4.8052     0.7668     4.5441 H            1    LIG   0.0000
  51 H           -5.2570     1.0902     2.2228 H            1    LIG   0.0000
@<TRIPOS>BOND
   1        1        2 1
   2        2        3 1
   3        3        4 1
   4        4        5 2
   5        5        6 1
   6        6        7 1
   7        7        8 2
   8        7        9 am
   9        9       10 1
  10       10       11 ar
  11       11       12 ar
  12       12       13 ar
  13       13       14 1
  14       14       15 1
  15       15       16 1
  16       16       17 ar
  17       16       18 ar
  18       13       19 ar
  19       19       20 ar
  20       20       21 ar
  21       21       22 ar
  22       22       23 ar
  23       23       24 ar
  24       24       10 ar
  25       24       19 ar
  26        5       25 1
  27       25       26 ar
  28       26       27 ar
  29       27       28 ar
  30       28       29 ar
  31       29       30 ar
  32       30       25 ar
  33       30        3 1
  34        1       31 1
  35        1       32 1
  36        1       33 1
  37        2       34 1
  38        2       35 1
  39        4       36 1
  40        6       37 1
  41        6       38 1
  42        9       39 1
  43       11       40 1
  44       12       41 1
  45       15       42 1
  46       15       43 1
  47       20       44 1
  48       21       45 1
  49       22       46 1
  50       23       47 1
  51       26       48 1
  52       27       49 1
  53       28       50 1
  54       29       51 1

@<TRIPOS>MOLECULE

  51   54
SMALL
USER_CHARGES
@<TRIPOS>ATOM
   1 C1          -3.4501     4.0573    -2.9637 C.3          1    LIG   0.0000
   2 C2          -2.6622     2.7618    -3.0712 C.3          1    LIG   0.0000
   3 N3          -1.4928     2.8240    -2.1817 N.pl3        1    LIG   0.0000
   4 C4          -1.4870     2.4115    -0.8836 C.2          1    LIG   0.0000
   5 C5          -0.2288     2.6307    -0.4111 C.2          1    LIG   0.0000
   6 C6           0.2400     2.3164     1.0000 C.3          1    LIG   0.0000
   7 C7           1.0000     1.0000     1.0000 C.2          1    LIG   0.0000
   8 O8           0.4000    -0.0392     1.0000 O.2          1    LIG   0.0000
   9 N9           2.3700     1.0000     1.0000 N.am         1    LIG   0.0000
  10 C10          3.0707    -0.2137     1.0000 C.ar         1    LIG   0.0000
  11 C11          2.4759    -1.3108     1.6145 C.ar         1    LIG   0.0000
  12 C12          3.1273    -2.5392     1.6436 C.ar         1    LIG   0.0000
  13 C13          4.3807    -2.6761     1.0560 C.ar         1    LIG   0.0000
  14 O14          4.9715    -3.8906     1.1098 O.3          1    LIG   0.0000
  15 C15          4.2295    -4.9024     1.7747 C.3          1    LIG   0.0000
  16 C16          5.0159    -6.2030     1.7551 C.2          1    LIG   0.0000
  17 O17          6.1373    -6.2471     1.2045 O.co2        1    LIG   0.0000
  18 O18          4.5565    -7.1956     2.2725 O.co2        1    LIG  -1.0000
  19 C19          4.9849    -1.5831     0.4369 C.ar         1    LIG   0.0000
  20 C20          6.2386    -1.6924    -0.1600 C.ar         1    LIG   0.0000
  21 C21          6.8505    -0.6082    -0.7804 C.ar         1    LIG   0.0000
  22 C22          6.1965     0.6194    -0.8064 C.ar         1    LIG   0.0000
  23 C23          4.9453     0.7277    -0.2094 C.ar         1    LIG   0.0000
  24 C24          4.3268    -0.3553     0.4128 C.ar         1    LIG   0.0000
  25 C25          0.5709     3.1896    -1.4339 C.ar         1    LIG   0.0000
  26 C26          1.8961     3.6027    -1.5383 C.ar         1    LIG   0.0000
  27 C27          2.4038     4.1212    -2.7255 C.ar         1    LIG   0.0000
  28 C28          1.5666     4.2263    -3.8315 C.ar         1    LIG   0.0000
  29 C29          0.2437     3.8114    -3.7197 C.ar         1    LIG   0.0000
  30 C30         -0.2575     3.2941    -2.5281 C.ar         1    LIG   0.0000
  31 H           -4.2453     4.0150    -3.5685 H            1    LIG   0.0000
  32 H           -3.7555     4.1843    -2.0200 H            1    LIG   0.0000
  33 H           -2.8678     4.8248    -3.2318 H            1    LIG   0.0000
  34 H           -3.2445     1.9943    -2.8031 H            1    LIG   0.0000
  35 H           -2.3569     2.6348    -4.0149 H            1    LIG   0.0000
  36 H           -2.2566     2.0234    -0.3764 H            1    LIG   0.0000
  37 H            0.8406     3.0480     1.3225 H            1    LIG   0.0000
  38 H           -0.5521     2.2439     1.6060 H            1    LIG   0.0000
  39 H            2.8700     1.8660     1.0000 H            1    LIG   0.0000
  40 H            1.5749    -1.2156     2.0377 H            1    LIG   0.0000
  41 H            2.6945    -3.3241     2.0871 H            1    LIG   0.0000
  42 H            3.3546    -5.0348     1.3088 H            1    LIG   0.0000
  43 H            4.0645    -4.6269     2.7217 H            1    LIG   0.0000
  44 H            6.7112    -2.5735    -0.1420 H            1    LIG   0.0000
  45 H            7.7509    -0.7100    -1.2032 H            1    LIG   0.0000
  46 H            6.6194     1.4112    -1.2472 H            1    LIG   0.0000
  47 H            4.4748     1.6099    -0.2272 H            1    LIG   0.0000
  48 H            2.4966     3.5252    -0.7424 H            1    LIG   0.0000
  49 H            3.3582     4.4144    -2.7830 H            1    LIG   0.0000
  50 H            1.9110     4.5951    -4.6948 H            1    LIG   0.0000
  51 H           -0.3609     3.8862    -4.5128 H            1    LIG   0.0000
@<TRIPOS>BOND
   1        1        2 1
   2        2        3 1
   3        3        4 1
   4        4        5 2
   5        5        6 1
   6        6        7 1
   7        7        8 2
   8        7        9 am
   9        9       10 1
  10       10       11 ar
  11       11       12 ar
  12       12       13 ar
  13       13       14 1
  14       14       15 1
  15       15       16 1
  16       16       17 ar
  17       16       18 ar
  18       13       19 ar
  19       19       20 ar
  20       20       21 ar
  21       21       22 ar
  22       22       23 ar
  23       23       24 ar
  24       24       10 ar
  25       24       19 ar
  26        5       25 1
  27       25       26 ar
  28       26       27 ar
  29       27       28 ar
  30       28       29 ar
  31       29       30 ar
  32       30       25 ar
  33       30        3 1
  34        1       31 1
  35        1       32 1
  36        1       33 1
  37        2       34 1
  38        2       35 1
  39        4       36 1
  40        6       37 1
  41        6       38 1
  42        9       39 1
  43       11       40 1
  44       12       41 1
  45       15       42 1
  46       15       43 1
  47       20       44 1
  48       21       45 1
  49       22       46 1
  50       23       47 1
  51       26       48 1
  52       27       49 1
  53       28       50 1
  54       29       51 1

@<TRIPOS>MOLECULE

  51   54
SMALL
USER_CHARGES
@<TRIPOS>ATOM
   1 C1           0.8818     3.5115    -4.5243 C.3          1    LIG   0.0000
   2 C2          -0.0316     4.3024    -3.6020 C.3          1    LIG   0.0000
   3 N3          -0.3456     3.4955    -2.4132 N.pl3        1    LIG   0.0000
   4 C4           0.3830     3.4999    -1.2624 C.2          1    LIG   0.0000
   5 C5          -0.2288     2.6307    -0.4111 C.2          1    LIG   0.0000
   6 C6           0.2400     2.3164     1.0000 C.3          1    LIG   0.0000
   7 C7           1.0000     1.0000     1.0000 C.2          1    LIG   0.0000
   8 O8           0.4000    -0.0392     1.0000 O.2          1    LIG   0.0000
   9 N9           2.3700     1.0000     1.0000 N.am         1    LIG   0.0000
  10 C10          3.0707    -0.2137     1.0000 C.ar         1    LIG   0.0000
  11 C11          2.4759    -1.3108     1.6145 C.ar         1    LIG   0.0000
  12 C12          3.1273    -2.5392     1.6436 C.ar         1    LIG   0.0000
  13 C13          4.3807    -2.6761     1.0560 C.ar         1    LIG   0.0000
  14 O14          4.9715    -3.8906     1.1098 O.3          1    LIG   0.0000
  15 C15          4.2295    -4.9024     1.7747 C.3          1    LIG   0.0000
  16 C16          5.0159    -6.2030     1.7551 C.2          1    LIG   0.0000
  17 O17          6.1373    -6.2471     1.2045 O.co2        1    LIG   0.0000
  18 O18          4.5565    -7.1956     2.2725 O.co2        1    LIG  -1.0000
  19 C19          4.9849    -1.5831     0.4369 C.ar         1    LIG   0.0000
  20 C20          6.2386    -1.6924    -0.1600 C.ar         1    LIG   0.0000
  21 C21          6.8505    -0.6082    -0.7804 C.ar         1    LIG   0.0000
  22 C22          6.1965     0.6194    -0.8064 C.ar         1    LIG   0.0000
  23 C23          4.9453     0.7277    -0.2094 C.ar         1    LIG   0.0000
  24 C24          4.3268    -0.3553     0.4128 C.ar         1    LIG   0.0000
  25 C25         -1.3648     2.0720    -1.0397 C.ar         1    LIG   0.0000
  26 C26         -2.3509     1.1611    -0.6712 C.ar         1    LIG   0.0000
  27 C27         -3.3773     0.8099    -1.5426 C.ar         1    LIG   0.0000
  28 C28         -3.4172     1.3845    -2.8088 C.ar         1    LIG   0.0000
  29 C29         -2.4287     2.2940    -3.1699 C.ar         1    LIG   0.0000
  30 C30         -1.4043     2.6402    -2.2928 C.ar         1    LIG   0.0000
  31 H            1.0953     4.0602    -5.3326 H            1    LIG   0.0000
  32 H            1.7280     3.2855    -4.0418 H            1    LIG   0.0000
  33 H            0.4229     2.6686    -4.8053 H            1    LIG   0.0000
  34 H            0.4272     5.1453    -3.3210 H            1    LIG   0.0000
  35 H           -0.8779     4.5284    -4.0845 H            1    LIG   0.0000
  36 H            1.2065     4.0366    -1.0785 H            1    LIG   0.0000
  37 H            0.8406     3.0480     1.3225 H            1    LIG   0.0000
  38 H           -0.5521     2.2439     1.6060 H            1    LIG   0.0000
  39 H            2.8700     1.8660     1.0000 H            1    LIG   0.0000
  40 H            1.5749    -1.2156     2.0377 H            1    LIG   0.0000
  41 H            2.6945    -3.3241     2.0871 H            1    LIG   0.0000
  42 H            3.3546    -5.0348     1.3088 H            1    LIG   0.0000
  43 H            4.0645    -4.6269     2.7217 H            1    LIG   0.0000
  44 H            6.7112    -2.5735    -0.1420 H            1    LIG   0.0000
  45 H            7.7509    -0.7100    -1.2032 H            1    LIG   0.0000
  46 H            6.6194     1.4112    -1.2472 H            1    LIG   0.0000
  47 H            4.4748     1.6099    -0.2272 H            1    LIG   0.0000
  48 H           -2.3209     0.7501     0.2399 H            1    LIG   0.0000
  49 H           -4.0771     0.1529    -1.2622 H            1    LIG   0.0000
  50 H           -4.1465     1.1470    -3.4505 H            1    LIG   0.0000
  51 H           -2.4543     2.7084    -4.0797 H            1    LIG   0.0000
@<TRIPOS>BOND
   1        1        2 1
   2        2        3 1
   3        3        4 1
   4        4        5 2
   5        5        6 1
   6        6        7 1
   7        7        8 2
   8        7        9 am
   9        9       10 1
  10       10       11 ar
  11       11       12 ar
  12       12       13 ar
  13       13       14 1
  14       14       15 1
  15       15       16 1
  16       16       17 ar
  17       16       18 ar
  18       13       19 ar
  19       19       20 ar
  20       20       21 ar
  21       21       22 ar
  22       22       23 ar
  23       23       24 ar
  24       24       10 ar
  25       24       19 ar
  26        5       25 1
  27       25       26 ar
  28       26       27 ar
  29       27       28 ar
  30       28       29 ar
  31       29       30 ar
  32       30       25 ar
  33       30        3 1
  34        1       31 1
  35        1       32 1
  36        1       33 1
  37        2       34 1
  38        2       35 1
  39        4       36 1
  40        6       37 1
  41        6       38 1
  42        9       39 1
  43       11       40 1
  44       12       41 1
  45       15       42 1
  46       15       43 1
  47       20       44 1
  48       21       45 1
  49       22       46 1
  50       23       47 1
  51       26       48 1
  52       27       49 1
  53       28       50 1
  54       29       51 1

@<TRIPOS>MOLECULE

  51   54
SMALL
USER_CHARGES
@<TRIPOS>ATOM
   1 C1          -0.7181     5.6346     5.5199 C.3          1    LIG   0.0000
   2 C2          -0.0202     4.2872     5.6092 C.3          1    LIG   0.0000
   3 N3          -0.3408     3.4891     4.4163 N.pl3        1    LIG   0.0000
   4 C4           0.3876     3.4938     3.2652 C.2          1    LIG   0.0000
   5 C5          -0.2288     2.6307     2.4111 C.2          1    LIG   0.0000
   6 C6           0.2400     2.3164     1.0000 C.3          1    LIG   0.0000
   7 C7           1.0000     1.0000     1.0000 C.2          1    LIG   0.0000
   8 O8           0.4000    -0.0392     1.0000 O.2          1    LIG   0.0000
   9 N9           2.3700     1.0000     1.0000 N.am         1    LIG   0.0000
  10 C10          3.0707    -0.2137     1.0000 C.ar         1    LIG   0.0000
  11 C11          2.4759    -1.3108     1.6145 C.ar         1    LIG   0.0000
  12 C12          3.1273    -2.5392     1.6436 C.ar         1    LIG   0.0000
  13 C13          4.3807    -2.6761     1.0560 C.ar         1    LIG   0.0000
  14 O14          4.9715    -3.8906     1.1098 O.3          1    LIG   0.0000
  15 C15          4.2295    -4.9024     1.7747 C.3          1    LIG   0.0000
  16 C16          5.0159    -6.2030     1.7551 C.2          1    LIG   0.0000
  17 O17          6.1373    -6.2471     1.2045 O.co2        1    LIG   0.0000
  18 O18          4.5565    -7.1956     2.2725 O.co2        1    LIG  -1.0000
  19 C19          4.9849    -1.5831     0.4369 C.ar         1    LIG   0.0000
  20 C20          6.2386    -1.6924    -0.1600 C.ar         1    LIG   0.0000
  21 C21          6.8505    -0.6082    -0.7804 C.ar         1    LIG   0.0000
  22 C22          6.1965     0.6194    -0.8064 C.ar         1    LIG   0.0000
  23 C23          4.9453     0.7277    -0.2094 C.ar         1    LIG   0.0000
  24 C24          4.3268    -0.3553     0.4128 C.ar         1    LIG   0.0000
  25 C25         -1.3648     2.0720     3.0397 C.ar         1    LIG   0.0000
  26 C26         -2.3454     1.1539     2.6747 C.ar         1    LIG   0.0000
  27 C27         -3.3634     0.7914     3.5513 C.ar         1    LIG   0.0000
  28 C28         -3.3986     1.3597     4.8205 C.ar         1    LIG   0.0000
  29 C29         -2.4153     2.2762     5.1783 C.ar         1    LIG   0.0000
  30 C30         -1.4000     2.6344     4.2955 C.ar         1    LIG   0.0000
  31 H           -0.5001     6.1773     6.3311 H            1    LIG   0.0000
  32 H           -0.4064     6.1179     4.7019 H            1    LIG   0.0000
  33 H           -1.7069     5.4950     5.4681 H            1    LIG   0.0000
  34 H            0.9687     4.4268     5.6609 H            1    LIG   0.0000
  35 H           -0.3319     3.8039     6.4272 H            1    LIG   0.0000
  36 H            1.2137     4.0270     3.0830 H            1    LIG   0.0000
  37 H           -0.5521     2.2439     0.3940 H            1    LIG   0.0000
  38 H            0.8406     3.0480     0.6775 H            1    LIG   0.0000
  39 H            2.8700     1.8660     1.0000 H            1    LIG   0.0000
  40 H            1.5749    -1.2156     2.0377 H            1    LIG   0.0000
  41 H            2.6945    -3.3241     2.0871 H            1    LIG   0.0000
  42 H            3.3546    -5.0348     1.3088 H            1    LIG   0.0000
  43 H            4.0645    -4.6269     2.7217 H            1    LIG   0.0000
  44 H            6.7112    -2.5735    -0.1420 H            1    LIG   0.0000
  45 H            7.7509    -0.7100    -1.2032 H            1    LIG   0.0000
  46 H            6.6194     1.4112    -1.2472 H            1    LIG   0.0000
  47 H            4.4748     1.6099    -0.2272 H            1    LIG   0.0000
  48 H           -2.3176     0.7457     1.7622 H            1    LIG   0.0000
  49 H           -4.0607     0.1311     3.2725 H            1    LIG   0.0000
  50 H           -4.1207     1.1128     5.4667 H            1    LIG   0.0000
  51 H           -2.4382     2.6869     6.0898 H            1    LIG   0.0000
@<TRIPOS>BOND
   1        1        2 1
   2        2        3 1
   3        3        4 1
   4        4        5 2
   5        5        6 1
   6        6        7 1
   7        7        8 2
   8        7        9 am
   9        9       10 1
  10       10       11 ar
  11       11       12 ar
  12       12       13 ar
  13       13       14 1
  14       14       15 1
  15       15       16 1
  16       16       17 ar
  17       16       18 ar
  18       13       19 ar
  19       19       20 ar
  20       20       21 ar
  21       21       22 ar
  22       22       23 ar
  23       23       24 ar
  24       24       10 ar
  25       24       19 ar
  26        5       25 1
  27       25       26 ar
  28       26       27 ar
  29       27       28 ar
  30       28       29 ar
  31       29       30 ar
  32       30       25 ar
  33       30        3 1
  34        1       31 1
  35        1       32 1
  36        1       33 1
  37        2       34 1
  38        2       35 1
  39        4       36 1
  40        6       37 1
  41        6       38 1
  42        9       39 1
  43       11       40 1
  44       12       41 1
  45       15       42 1
  46       15       43 1
  47       20       44 1
  48       21       45 1
  49       22       46 1
  50       23       47 1
  51       26       48 1
  52       27       49 1
  53       28       50 1
  54       29       51 1

@<TRIPOS>MOLECULE

  51   54
SMALL
USER_CHARGES
@<TRIPOS>ATOM
   1 C1          -2.6920     1.4482     5.7967 C.3          1    LIG   0.0000
   2 C2          -2.6677     2.7805     5.0653 C.3          1    LIG   0.0000
   3 N3          -1.4951     2.8319     4.1792 N.pl3        1    LIG   0.0000
   4 C4          -1.4892     2.4189     2.8812 C.2          1    LIG   0.0000
   5 C5          -0.2288     2.6307     2.4111 C.2          1    LIG   0.0000
   6 C6           0.2400     2.3164     1.0000 C.3          1    LIG   0.0000
   7 C7           1.0000     1.0000     1.0000 C.2          1    LIG   0.0000
   8 O8           0.4000    -0.0392     1.0000 O.2          1    LIG   0.0000
   9 N9           2.3700     1.0000     1.0000 N.am         1    LIG   0.0000
  10 C10          3.0707    -0.2137     1.0000 C.ar         1    LIG   0.0000
  11 C11          2.4759    -1.3108     1.6145 C.ar         1    LIG   0.0000
  12 C12          3.1273    -2.5392     1.6436 C.ar         1    LIG   0.0000
  13 C13          4.3807    -2.6761     1.0560 C.ar         1    LIG   0.0000
  14 O14          4.9715    -3.8906     1.1098 O.3          1    LIG   0.0000
  15 C15          4.2295    -4.9024     1.7747 C.3          1    LIG   0.0000
  16 C16          5.0159    -6.2030     1.7551 C.2          1    LIG   0.0000
  17 O17          6.1373    -6.2471     1.2045 O.co2        1    LIG   0.0000
  18 O18          4.5565    -7.1956     2.2725 O.co2        1    LIG  -1.0000
  19 C19          4.9849    -1.5831     0.4369 C.ar         1    LIG   0.0000
  20 C20          6.2386    -1.6924    -0.1600 C.ar         1    LIG   0.0000
  21 C21          6.8505    -0.6082    -0.7804 C.ar         1    LIG   0.0000
  22 C22          6.1965     0.6194    -0.8064 C.ar         1    LIG   0.0000
  23 C23          4.9453     0.7277    -0.2094 C.ar         1    LIG   0.0000
  24 C24          4.3268    -0.3553     0.4128 C.ar         1    LIG   0.0000
  25 C25          0.5709     3.1896     3.4339 C.ar         1    LIG   0.0000
  26 C26          1.8935     3.6116     3.5354 C.ar         1    LIG   0.0000
  27 C27          2.3973     4.1438     4.7183 C.ar         1    LIG   0.0000
  28 C28          1.5577     4.2568     5.8217 C.ar         1    LIG   0.0000
  29 C29          0.2373     3.8332     5.7127 C.ar         1    LIG   0.0000
  30 C30         -0.2595     3.3011     4.5259 C.ar         1    LIG   0.0000
  31 H           -3.4893     1.4133     6.3992 H            1    LIG   0.0000
  32 H           -2.7441     0.7036     5.1313 H            1    LIG   0.0000
  33 H           -1.8586     1.3514     6.3407 H            1    LIG   0.0000
  34 H           -3.5011     2.8773     4.5212 H            1    LIG   0.0000
  35 H           -2.6156     3.5251     5.7307 H            1    LIG   0.0000
  36 H           -2.2600     2.0352     2.3727 H            1    LIG   0.0000
  37 H           -0.5521     2.2439     0.3940 H            1    LIG   0.0000
  38 H            0.8406     3.0480     0.6775 H            1    LIG   0.0000
  39 H            2.8700     1.8660     1.0000 H            1    LIG   0.0000
  40 H            1.5749    -1.2156     2.0377 H            1    LIG   0.0000
  41 H            2.6945    -3.3241     2.0871 H            1    LIG   0.0000
  42 H            3.3546    -5.0348     1.3088 H            1    LIG   0.0000
  43 H            4.0645    -4.6269     2.7217 H            1    LIG   0.0000
  44 H            6.7112    -2.5735    -0.1420 H            1    LIG   0.0000
  45 H            7.7509    -0.7100    -1.2032 H            1    LIG   0.0000
  46 H            6.6194     1.4112    -1.2472 H            1    LIG   0.0000
  47 H            4.4748     1.6099    -0.2272 H            1    LIG   0.0000
  48 H            2.4950     3.5306     2.7407 H            1    LIG   0.0000
  49 H            3.3504     4.4412     4.7745 H            1    LIG   0.0000
  50 H            1.8987     4.6373     6.6814 H            1    LIG   0.0000
  51 H           -0.3685     3.9126     6.5043 H            1    LIG   0.0000
@<TRIPOS>BOND
   1        1        2 1
   2        2        3 1
   3        3        4 1
   4        4        5 2
   5        5        6 1
   6        6        7 1
   7        7        8 2
   8        7        9 am
   9        9       10 1
  10       10       11 ar
  11       11       12 ar
  12       12       13 ar
  13       13       14 1
  14       14       15 1
  15       15       16 1
  16       16       17 ar
  17       16       18 ar
  18       13       19 ar
  19       19       20 ar
  20       20       21 ar
  21       21       22 ar
  22       22       23 ar
  23       23       24 ar
  24       24       10 ar
  25       24       19 ar
  26        5       25 1
  27       25       26 ar
  28       26       27 ar
  29       27       28 ar
  30       28       29 ar
  31       29       30 ar
  32       30       25 ar
  33       30        3 1
  34        1       31 1
  35        1       32 1
  36        1       33 1
  37        2       34 1
  38        2       35 1
  39        4       36 1
  40        6       37 1
  41        6       38 1
  42        9       39 1
  43       11       40 1
  44       12       41 1
  45       15       42 1
  46       15       43 1
  47       20       44 1
  48       21       45 1
  49       22       46 1
  50       23       47 1
  51       26       48 1
  52       27       49 1
  53       28       50 1
  54       29       51 1

@<TRIPOS>MOLECULE

  51   54
SMALL
USER_CHARGES
@<TRIPOS>ATOM
   1 C1           2.2938     7.3735    -0.6017 C.3          1    LIG   0.0000
   2 C2           3.1382     6.1107    -0.5489 C.3          1    LIG   0.0000
   3 N3           2.4881     5.1224     0.3246 N.pl3        1    LIG   0.0000
   4 C4           1.5912     4.1887    -0.0990 C.2          1    LIG   0.0000
   5 C5           1.2276     3.4715     1.0000 C.2          1    LIG   0.0000
   6 C6           0.2400     2.3164     1.0000 C.3          1    LIG   0.0000
   7 C7           1.0000     1.0000     1.0000 C.2          1    LIG   0.0000
   8 O8           0.4000    -0.0392     1.0000 O.2          1    LIG   0.0000
   9 N9           2.3700     1.0000     1.0000 N.am         1    LIG   0.0000
  10 C10          3.0707    -0.2137     1.0000 C.ar         1    LIG   0.0000
  11 C11          2.4759    -1.3108     1.6145 C.ar         1    LIG   0.0000
  12 C12          3.1273    -2.5392     1.6436 C.ar         1    LIG   0.0000
  13 C13          4.3807    -2.6761     1.0560 C.ar         1    LIG   0.0000
  14 O14          4.9715    -3.8906     1.1098 O.3          1    LIG   0.0000
  15 C15          4.2295    -4.9024     1.7747 C.3          1    LIG   0.0000
  16 C16          5.0159    -6.2030     1.7551 C.2          1    LIG   0.0000
  17 O17          6.1373    -6.2471     1.2045 O.co2        1    LIG   0.0000
  18 O18          4.5565    -7.1956     2.2725 O.co2        1    LIG  -1.0000
  19 C19          4.9849    -1.5831     0.4369 C.ar         1    LIG   0.0000
  20 C20          6.2386    -1.6924    -0.1600 C.ar         1    LIG   0.0000
  21 C21          6.8505    -0.6082    -0.7804 C.ar         1    LIG   0.0000
  22 C22          6.1965     0.6194    -0.8064 C.ar         1    LIG   0.0000
  23 C23          4.9453     0.7277    -0.2094 C.ar         1    LIG   0.0000
  24 C24          4.3268    -0.3553     0.4128 C.ar         1    LIG   0.0000
  25 C25          1.9116     3.9637     2.1348 C.ar         1    LIG   0.0000
  26 C26          1.9494     3.6335     3.4866 C.ar         1    LIG   0.0000
  27 C27          2.7593     4.3264     4.3811 C.ar         1    LIG   0.0000
  28 C28          3.5488     5.3708     3.9108 C.ar         1    LIG   0.0000
  29 C29          3.5060     5.6949     2.5588 C.ar         1    LIG   0.0000
  30 C30          2.6926     4.9973     1.6698 C.ar         1    LIG   0.0000
  31 H            2.7359     8.0456    -1.1957 H            1    LIG   0.0000
  32 H            1.3878     7.1538    -0.9634 H            1    LIG   0.0000
  33 H            2.2022     7.7519     0.3194 H            1    LIG   0.0000
  34 H            3.2299     5.7323    -1.4700 H            1    LIG   0.0000
  35 H            4.0442     6.3305    -0.1871 H            1    LIG   0.0000
  36 H            1.2638     4.0559    -1.0345 H            1    LIG   0.0000
  37 H           -0.3349     2.3693     1.8165 H            1    LIG   0.0000
  38 H           -0.3349     2.3693     0.1835 H            1    LIG   0.0000
  39 H            2.8700     1.8660     1.0000 H            1    LIG   0.0000
  40 H            1.5749    -1.2156     2.0377 H            1    LIG   0.0000
  41 H            2.6945    -3.3241     2.0871 H            1    LIG   0.0000
  42 H            3.3546    -5.0348     1.3088 H            1    LIG   0.0000
  43 H            4.0645    -4.6269     2.7217 H            1    LIG   0.0000
  44 H            6.7112    -2.5735    -0.1420 H            1    LIG   0.0000
  45 H            7.7509    -0.7100    -1.2032 H            1    LIG   0.0000
  46 H            6.6194     1.4112    -1.2472 H            1    LIG   0.0000
  47 H            4.4748     1.6099    -0.2272 H            1    LIG   0.0000
  48 H            1.3820     2.8816     3.8223 H            1    LIG   0.0000
  49 H            2.7737     4.0769     5.3494 H            1    LIG   0.0000
  50 H            4.1390     5.8815     4.5361 H            1    LIG   0.0000
  51 H            4.0719     6.4455     2.2178 H            1    LIG   0.0000
@<TRIPOS>BOND
   1        1        2 1
   2        2        3 1
   3        3        4 1
   4        4        5 2
   5        5        6 1
   6        6        7 1
   7        7        8 2
   8        7        9 am
   9        9       10 1
  10       10       11 ar
  11       11       12 ar
  12       12       13 ar
  13       13       14 1
  14       14       15 1
  15       15       16 1
  16       16       17 ar
  17       16       18 ar
  18       13       19 ar
  19       19       20 ar
  20       20       21 ar
  21       21       22 ar
  22       22       23 ar
  23       23       24 ar
  24       24       10 ar
  25       24       19 ar
  26        5       25 1
  27       25       26 ar
  28       26       27 ar
  29       27       28 ar
  30       28       29 ar
  31       29       30 ar
  32       30       25 ar
  33       30        3 1
  34        1       31 1
  35        1       32 1
  36        1       33 1
  37        2       34 1
  38        2       35 1
  39        4       36 1
  40        6       37 1
  41        6       38 1
  42        9       39 1
  43       11       40 1
  44       12       41 1
  45       15       42 1
  46       15       43 1
  47       20       44 1
  48       21       45 1
  49       22       46 1
  50       23       47 1
  51       26       48 1
  52       27       49 1
  53       28       50 1
  54       29       51 1

@<TRIPOS>MOLECULE

  51   54
SMALL
USER_CHARGES
@<TRIPOS>ATOM
   1 C1           4.4210     5.5549     3.0951 C.3          1    LIG   0.0000
   2 C2           3.1231     6.1237     2.5454 C.3          1    LIG   0.0000
   3 N3           2.4816     5.1279     1.6739 N.pl3        1    LIG   0.0000
   4 C4           1.5852     4.1939     2.0976 C.2          1    LIG   0.0000
   5 C5           1.2276     3.4715     1.0000 C.2          1    LIG   0.0000
   6 C6           0.2400     2.3164     1.0000 C.3          1    LIG   0.0000
   7 C7           1.0000     1.0000     1.0000 C.2          1    LIG   0.0000
   8 O8           0.4000    -0.0392     1.0000 O.2          1    LIG   0.0000
   9 N9           2.3700     1.0000     1.0000 N.am         1    LIG   0.0000
  10 C10          3.0707    -0.2137     1.0000 C.ar         1    LIG   0.0000
  11 C11          2.4759    -1.3108     1.6145 C.ar         1    LIG   0.0000
  12 C12          3.1273    -2.5392     1.6436 C.ar         1    LIG   0.0000
  13 C13          4.3807    -2.6761     1.0560 C.ar         1    LIG   0.0000
  14 O14          4.9715    -3.8906     1.1098 O.3          1    LIG   0.0000
  15 C15          4.2295    -4.9024     1.7747 C.3          1    LIG   0.0000
  16 C16          5.0159    -6.2030     1.7551 C.2          1    LIG   0.0000
  17 O17          6.1373    -6.2471     1.2045 O.co2        1    LIG   0.0000
  18 O18          4.5565    -7.1956     2.2725 O.co2        1    LIG  -1.0000
  19 C19          4.9849    -1.5831     0.4369 C.ar         1    LIG   0.0000
  20 C20          6.2386    -1.6924    -0.1600 C.ar         1    LIG   0.0000
  21 C21          6.8505    -0.6082    -0.7804 C.ar         1    LIG   0.0000
  22 C22          6.1965     0.6194    -0.8064 C.ar         1    LIG   0.0000
  23 C23          4.9453     0.7277    -0.2094 C.ar         1    LIG   0.0000
  24 C24          4.3268    -0.3553     0.4128 C.ar         1    LIG   0.0000
  25 C25          1.9116     3.9637    -0.1348 C.ar         1    LIG   0.0000
  26 C26          1.9422     3.6397    -1.4883 C.ar         1    LIG   0.0000
  27 C27          2.7409     4.3422    -2.3854 C.ar         1    LIG   0.0000
  28 C28          3.5240     5.3920    -1.9166 C.ar         1    LIG   0.0000
  29 C29          3.4882     5.7101    -0.5630 C.ar         1    LIG   0.0000
  30 C30          2.6868     5.0022     0.3289 C.ar         1    LIG   0.0000
  31 H            4.8571     6.2321     3.6878 H            1    LIG   0.0000
  32 H            4.2257     4.7276     3.6218 H            1    LIG   0.0000
  33 H            5.0340     5.3308     2.3375 H            1    LIG   0.0000
  34 H            2.5100     6.3478     3.3030 H            1    LIG   0.0000
  35 H            3.3183     6.9511     2.0187 H            1    LIG   0.0000
  36 H            1.2542     4.0641     3.0323 H            1    LIG   0.0000
  37 H           -0.3349     2.3693     1.8165 H            1    LIG   0.0000
  38 H           -0.3349     2.3693     0.1835 H            1    LIG   0.0000
  39 H            2.8700     1.8660     1.0000 H            1    LIG   0.0000
  40 H            1.5749    -1.2156     2.0377 H            1    LIG   0.0000
  41 H            2.6945    -3.3241     2.0871 H            1    LIG   0.0000
  42 H            3.3546    -5.0348     1.3088 H            1    LIG   0.0000
  43 H            4.0645    -4.6269     2.7217 H            1    LIG   0.0000
  44 H            6.7112    -2.5735    -0.1420 H            1    LIG   0.0000
  45 H            7.7509    -0.7100    -1.2032 H            1    LIG   0.0000
  46 H            6.6194     1.4112    -1.2472 H            1    LIG   0.0000
  47 H            4.4748     1.6099    -0.2272 H            1    LIG   0.0000
  48 H            1.3776     2.8854    -1.8233 H            1    LIG   0.0000
  49 H            2.7518     4.0956    -3.3544 H            1    LIG   0.0000
  50 H            4.1046     5.9108    -2.5441 H            1    LIG   0.0000
  51 H            4.0504     6.4638    -0.2228 H            1    LIG   0.0000
@<TRIPOS>BOND
   1        1        2 1
   2        2        3 1
   3        3        4 1
   4        4        5 2
   5        5        6 1
   6        6        7 1
   7        7        8 2
   8        7        9 am
   9        9       10 1
  10       10       11 ar
  11       11       12 ar
  12       12       13 ar
  13       13       14 1
  14       14       15 1
  15       15       16 1
  16       16       17 ar
  17       16       18 ar
  18       13       19 ar
  19       19       20 ar
  20       20       21 ar
  21       21       22 ar
  22       22       23 ar
  23       23       24 ar
  24       24       10 ar
  25       24       19 ar
  26        5       25 1
  27       25       26 ar
  28       26       27 ar
  29       27       28 ar
  30       28       29 ar
  31       29       30 ar
  32       30       25 ar
  33       30        3 1
  34        1       31 1
  35        1       32 1
  36        1       33 1
  37        2       34 1
  38        2       35 1
  39        4       36 1
  40        6       37 1
  41        6       38 1
  42        9       39 1
  43       11       40 1
  44       12       41 1
  45       15       42 1
  46       15       43 1
  47       20       44 1
  48       21       45 1
  49       22       46 1
  50       23       47 1
  51       26       48 1
  52       27       49 1
  53       28       50 1
  54       29       51 1

@<TRIPOS>MOLECULE

  51   54
SMALL
USER_CHARGES
@<TRIPOS>ATOM
   1 C1          -5.1577     3.0921    -0.5962 C.3          1    LIG   0.0000
   2 C2          -4.4988     1.7233    -0.5454 C.3          1    LIG   0.0000
   3 N3          -3.3157     1.7808     0.3261 N.pl3        1    LIG   0.0000
   4 C4          -2.0586     2.0902    -0.0976 C.2          1    LIG   0.0000
   5 C5          -1.2542     2.0386     1.0000 C.2          1    LIG   0.0000
   6 C6           0.2400     2.3164     1.0000 C.3          1    LIG   0.0000
   7 C7           1.0000     1.0000     1.0000 C.2          1    LIG   0.0000
   8 O8           0.4000    -0.0392     1.0000 O.2          1    LIG   0.0000
   9 N9           2.3700     1.0000     1.0000 N.am         1    LIG   0.0000
  10 C10          3.0707    -0.2137     1.0000 C.ar         1    LIG   0.0000
  11 C11          3.9287    -0.4720    -0.0640 C.ar         1    LIG   0.0000
  12 C12          4.6485    -1.6609    -0.1143 C.ar         1    LIG   0.0000
  13 C13          4.5128    -2.5998     0.9031 C.ar         1    LIG   0.0000
  14 O14          5.2347    -3.7386     0.8087 O.3          1    LIG   0.0000
  15 C15          6.0609    -3.8451    -0.3413 C.3          1    LIG   0.0000
  16 C16          6.8060    -5.1695    -0.3090 C.2          1    LIG   0.0000
  17 O17          6.6321    -5.9614     0.6424 O.co2        1    LIG   0.0000
  18 O18          7.5676    -5.4572    -1.2041 O.co2        1    LIG  -1.0000
  19 C19          3.6563    -2.3501     1.9742 C.ar         1    LIG   0.0000
  20 C20          3.5022    -3.2722     3.0066 C.ar         1    LIG   0.0000
  21 C21          2.6503    -3.0331     4.0799 C.ar         1    LIG   0.0000
  22 C22          1.9309    -1.8433     4.1262 C.ar         1    LIG   0.0000
  23 C23          2.0848    -0.9238     3.0945 C.ar         1    LIG   0.0000
  24 C24          2.9376    -1.1574     2.0170 C.ar         1    LIG   0.0000
  25 C25         -2.0224     1.6923     2.1348 C.ar         1    LIG   0.0000
  26 C26         -1.7571     1.5039     3.4883 C.ar         1    LIG   0.0000
  27 C27         -2.7648     1.1635     4.3854 C.ar         1    LIG   0.0000
  28 C28         -4.0656     1.0102     3.9166 C.ar         1    LIG   0.0000
  29 C29         -4.3231     1.2002     2.5630 C.ar         1    LIG   0.0000
  30 C30         -3.3094     1.5403     1.6711 C.ar         1    LIG   0.0000
  31 H           -5.9623     3.0529    -1.1888 H            1    LIG   0.0000
  32 H           -5.4355     3.3627     0.3256 H            1    LIG   0.0000
  33 H           -4.5089     3.7611    -0.9587 H            1    LIG   0.0000
  34 H           -5.1476     1.0542    -0.1829 H            1    LIG   0.0000
  35 H           -4.2210     1.4526    -1.4671 H            1    LIG   0.0000
  36 H           -1.7807     2.3119    -1.0323 H            1    LIG   0.0000
  37 H            0.4816     2.8407     0.1835 H            1    LIG   0.0000
  38 H            0.4816     2.8407     1.8165 H            1    LIG   0.0000
  39 H            2.8700     1.8660     1.0000 H            1    LIG   0.0000
  40 H            4.0286     0.2011    -0.7968 H            1    LIG   0.0000
  41 H            5.2636    -1.8409    -0.8819 H            1    LIG   0.0000
  42 H            6.7191    -3.0923    -0.3498 H            1    LIG   0.0000
  43 H            5.4941    -3.8015    -1.1641 H            1    LIG   0.0000
  44 H            4.0176    -4.1286     2.9754 H            1    LIG   0.0000
  45 H            2.5560    -3.7094     4.8105 H            1    LIG   0.0000
  46 H            1.3131    -1.6525     4.8890 H            1    LIG   0.0000
  47 H            1.5677    -0.0685     3.1266 H            1    LIG   0.0000
  48 H           -0.8216     1.6157     3.8233 H            1    LIG   0.0000
  49 H           -2.5567     1.0307     5.3544 H            1    LIG   0.0000
  50 H           -4.8052     0.7668     4.5441 H            1    LIG   0.0000
  51 H           -5.2570     1.0902     2.2228 H            1    LIG   0.0000
@<TRIPOS>BOND
   1        1        2 1
   2        2        3 1
   3        3        4 1
   4        4        5 2
   5        5        6 1
   6        6        7 1
   7        7        8 2
   8        7        9 am
   9        9       10 1
  10       10       11 ar
  11       11       12 ar
  12       12       13 ar
  13       13       14 1
  14       14       15 1
  15       15       16 1
  16       16       17 ar
  17       16       18 ar
  18       13       19 ar
  19       19       20 ar
  20       20       21 ar
  21       21       22 ar
  22       22       23 ar
  23       23       24 ar
  24       24       10 ar
  25       24       19 ar
  26        5       25 1
  27       25       26 ar
  28       26       27 ar
  29       27       28 ar
  30       28       29 ar
  31       29       30 ar
  32       30       25 ar
  33       30        3 1
  34        1       31 1
  35        1       32 1
  36        1       33 1
  37        2       34 1
  38        2       35 1
  39        4       36 1
  40        6       37 1
  41        6       38 1
  42        9       39 1
  43       11       40 1
  44       12       41 1
  45       15       42 1
  46       15       43 1
  47       20       44 1
  48       21       45 1
  49       22       46 1
  50       23       47 1
  51       26       48 1
  52       27       49 1
  53       28       50 1
  54       29       51 1

@<TRIPOS>MOLECULE

  51   54
SMALL
USER_CHARGES
@<TRIPOS>ATOM
   1 C1          -0.7181     5.6346     5.5199 C.3          1    LIG   0.0000
   2 C2          -0.0202     4.2872     5.6092 C.3          1    LIG   0.0000
   3 N3          -0.3408     3.4891     4.4163 N.pl3        1    LIG   0.0000
   4 C4           0.3876     3.4938     3.2652 C.2          1    LIG   0.0000
   5 C5          -0.2288     2.6307     2.4111 C.2          1    LIG   0.0000
   6 C6           0.2400     2.3164     1.0000 C.3          1    LIG   0.0000
   7 C7           1.0000     1.0000     1.0000 C.2          1    LIG   0.0000
   8 O8           0.4000    -0.0392     1.0000 O.2          1    LIG   0.0000
   9 N9           2.3700     1.0000     1.0000 N.am         1    LIG   0.0000
  10 C10          3.0707    -0.2137     1.0000 C.ar         1    LIG   0.0000
  11 C11          3.9287    -0.4720    -0.0640 C.ar         1    LIG   0.0000
  12 C12          4.6485    -1.6609    -0.1143 C.ar         1    LIG   0.0000
  13 C13          4.5128    -2.5998     0.9031 C.ar         1    LIG   0.0000
  14 O14          5.2347    -3.7386     0.8087 O.3          1    LIG   0.0000
  15 C15          6.0609    -3.8451    -0.3413 C.3          1    LIG   0.0000
  16 C16          7.3361    -3.0468    -0.1248 C.2          1    LIG   0.0000
  17 O17          7.5136    -2.4315     0.9487 O.co2        1    LIG   0.0000
  18 O18          8.1795    -3.0070    -0.9915 O.co2        1    LIG  -1.0000
  19 C19          3.6563    -2.3501     1.9742 C.ar         1    LIG   0.0000
  20 C20          3.5022    -3.2722     3.0066 C.ar         1    LIG   0.0000
  21 C21          2.6503    -3.0331     4.0799 C.ar         1    LIG   0.0000
  22 C22          1.9309    -1.8433     4.1262 C.ar         1    LIG   0.0000
  23 C23          2.0848    -0.9238     3.0945 C.ar         1    LIG   0.0000
  24 C24          2.9376    -1.1574     2.0170 C.ar         1    LIG   0.0000
  25 C25         -1.3648     2.0720     3.0397 C.ar         1    LIG   0.0000
  26 C26         -2.3454     1.1539     2.6747 C.ar         1    LIG   0.0000
  27 C27         -3.3634     0.7914     3.5513 C.ar         1    LIG   0.0000
  28 C28         -3.3986     1.3597     4.8205 C.ar         1    LIG   0.0000
  29 C29         -2.4153     2.2762     5.1783 C.ar         1    LIG   0.0000
  30 C30         -1.4000     2.6344     4.2955 C.ar         1    LIG   0.0000
  31 H           -0.5001     6.1773     6.3311 H            1    LIG   0.0000
  32 H           -0.4064     6.1179     4.7019 H            1    LIG   0.0000
  33 H           -1.7069     5.4950     5.4681 H            1    LIG   0.0000
  34 H            0.9687     4.4268     5.6609 H            1    LIG   0.0000
  35 H           -0.3319     3.8039     6.4272 H            1    LIG   0.0000
  36 H            1.2137     4.0270     3.0830 H            1    LIG   0.0000
  37 H           -0.5521     2.2439     0.3940 H            1    LIG   0.0000
  38 H            0.8406     3.0480     0.6775 H            1    LIG   0.0000
  39 H            2.8700     1.8660     1.0000 H            1    LIG   0.0000
  40 H            4.0286     0.2011    -0.7968 H            1    LIG   0.0000
  41 H            5.2636    -1.8409    -0.8819 H            1    LIG   0.0000
  42 H            5.5732    -3.4849    -1.1366 H            1    LIG   0.0000
  43 H            6.2913    -4.8054    -0.4984 H            1    LIG   0.0000
  44 H            4.0176    -4.1286     2.9754 H            1    LIG   0.0000
  45 H            2.5560    -3.7094     4.8105 H            1    LIG   0.0000
  46 H            1.3131    -1.6525     4.8890 H            1    LIG   0.0000
  47 H            1.5677    -0.0685     3.1266 H            1    LIG   0.0000
  48 H           -2.3176     0.7457     1.7622 H            1    LIG   0.0000
  49 H           -4.0607     0.1311     3.2725 H            1    LIG   0.0000
  50 H           -4.1207     1.1128     5.4667 H            1    LIG   0.0000
  51 H           -2.4382     2.6869     6.0898 H            1    LIG   0.0000
@<TRIPOS>BOND
   1        1        2 1
   2        2        3 1
   3        3        4 1
   4        4        5 2
   5        5        6 1
   6        6        7 1
   7        7        8 2
   8        7        9 am
   9        9       10 1
  10       10       11 ar
  11       11       12 ar
  12       12       13 ar
  13       13       14 1
  14       14       15 1
  15       15       16 1
  16       16       17 ar
  17       16       18 ar
  18       13       19 ar
  19       19       20 ar
  20       20       21 ar
  21       21       22 ar
  22       22       23 ar
  23       23       24 ar
  24       24       10 ar
  25       24       19 ar
  26        5       25 1
  27       25       26 ar
  28       26       27 ar
  29       27       28 ar
  30       28       29 ar
  31       29       30 ar
  32       30       25 ar
  33       30        3 1
  34        1       31 1
  35        1       32 1
  36        1       33 1
  37        2       34 1
  38        2       35 1
  39        4       36 1
  40        6       37 1
  41        6       38 1
  42        9       39 1
  43       11       40 1
  44       12       41 1
  45       15       42 1
  46       15       43 1
  47       20       44 1
  48       21       45 1
  49       22       46 1
  50       23       47 1
  51       26       48 1
  52       27       49 1
  53       28       50 1
  54       29       51 1

@<TRIPOS>MOLECULE

  51   54
SMALL
USER_CHARGES
@<TRIPOS>ATOM
   1 C1           2.2938     7.3735    -0.6017 C.3          1    LIG   0.0000
   2 C2           3.1382     6.1107    -0.5489 C.3          1    LIG   0.0000
   3 N3           2.4881     5.1224     0.3246 N.pl3        1    LIG   0.0000
   4 C4           1.5912     4.1887    -0.0990 C.2          1    LIG   0.0000
   5 C5           1.2276     3.4715     1.0000 C.2          1    LIG   0.0000
   6 C6           0.2400     2.3164     1.0000 C.3          1    LIG   0.0000
   7 C7           1.0000     1.0000     1.0000 C.2          1    LIG   0.0000
   8 O8           0.4000    -0.0392     1.0000 O.2          1    LIG   0.0000
   9 N9           2.3700     1.0000     1.0000 N.am         1    LIG   0.0000
  10 C10          3.0707    -0.2137     1.0000 C.ar         1    LIG   0.0000
  11 C11          3.9287    -0.4720    -0.0640 C.ar         1    LIG   0.0000
  12 C12          4.6485    -1.6609    -0.1143 C.ar         1    LIG   0.0000
  13 C13          4.5128    -2.5998     0.9031 C.ar         1    LIG   0.0000
  14 O14          5.2347    -3.7386     0.8087 O.3          1    LIG   0.0000
  15 C15          6.0609    -3.8451    -0.3413 C.3          1    LIG   0.0000
  16 C16          7.3361    -3.0468    -0.1248 C.2          1    LIG   0.0000
  17 O17          7.5136    -2.4315     0.9487 O.co2        1    LIG   0.0000
  18 O18          8.1795    -3.0070    -0.9915 O.co2        1    LIG  -1.0000
  19 C19          3.6563    -2.3501     1.9742 C.ar         1    LIG   0.0000
  20 C20          3.5022    -3.2722     3.0066 C.ar         1    LIG   0.0000
  21 C21          2.6503    -3.0331     4.0799 C.ar         1    LIG   0.0000
  22 C22          1.9309    -1.8433     4.1262 C.ar         1    LIG   0.0000
  23 C23          2.0848    -0.9238     3.0945 C.ar         1    LIG   0.0000
  24 C24          2.9376    -1.1574     2.0170 C.ar         1    LIG   0.0000
  25 C25          1.9116     3.9637     2.1348 C.ar         1    LIG   0.0000
  26 C26          1.9494     3.6335     3.4866 C.ar         1    LIG   0.0000
  27 C27          2.7593     4.3264     4.3811 C.ar         1    LIG   0.0000
  28 C28          3.5488     5.3708     3.9108 C.ar         1    LIG   0.0000
  29 C29          3.5060     5.6949     2.5588 C.ar         1    LIG   0.0000
  30 C30          2.6926     4.9973     1.6698 C.ar         1    LIG   0.0000
  31 H            2.7359     8.0456    -1.1957 H            1    LIG   0.0000
  32 H            1.3878     7.1538    -0.9634 H            1    LIG   0.0000
  33 H            2.2022     7.7519     0.3194 H            1    LIG   0.0000
  34 H            3.2299     5.7323    -1.4700 H            1    LIG   0.0000
  35 H            4.0442     6.3305    -0.1871 H            1    LIG   0.0000
  36 H            1.2638     4.0559    -1.0345 H            1    LIG   0.0000
  37 H           -0.3349     2.3693     1.8165 H            1    LIG   0.0000
  38 H           -0.3349     2.3693     0.1835 H            1    LIG   0.0000
  39 H            2.8700     1.8660     1.0000 H            1    LIG   0.0000
  40 H            4.0286     0.2011    -0.7968 H            1    LIG   0.0000
  41 H            5.2636    -1.8409    -0.8819 H            1    LIG   0.0000
  42 H            5.5732    -3.4849    -1.1366 H            1    LIG   0.0000
  43 H            6.2913    -4.8054    -0.4984 H            1    LIG   0.0000
  44 H            4.0176    -4.1286     2.9754 H            1    LIG   0.0000
  45 H            2.5560    -3.7094     4.8105 H            1    LIG   0.0000
  46 H            1.3131    -1.6525     4.8890 H            1    LIG   0.0000
  47 H            1.5677    -0.0685     3.1266 H            1    LIG   0.0000
  48 H            1.3820     2.8816     3.8223 H            1    LIG   0.0000
  49 H            2.7737     4.0769     5.3494 H            1    LIG   0.0000
  50 H            4.1390     5.8815     4.5361 H            1    LIG   0.0000
  51 H            4.0719     6.4455     2.2178 H            1    LIG   0.0000
@<TRIPOS>BOND
   1        1        2 1
   2        2        3 1
   3        3        4 1
   4        4        5 2
   5        5        6 1
   6        6        7 1
   7        7        8 2
   8        7        9 am
   9        9       10 1
  10       10       11 ar
  11       11       12 ar
  12       12       13 ar
  13       13       14 1
  14       14       15 1
  15       15       16 1
  16       16       17 ar
  17       16       18 ar
  18       13       19 ar
  19       19       20 ar
  20       20       21 ar
  21       21       22 ar
  22       22       23 ar
  23       23       24 ar
  24       24       10 ar
  25       24       19 ar
  26        5       25 1
  27       25       26 ar
  28       26       27 ar
  29       27       28 ar
  30       28       29 ar
  31       29       30 ar
  32       30       25 ar
  33       30        3 1
  34        1       31 1
  35        1       32 1
  36        1       33 1
  37        2       34 1
  38        2       35 1
  39        4       36 1
  40        6       37 1
  41        6       38 1
  42        9       39 1
  43       11       40 1
  44       12       41 1
  45       15       42 1
  46       15       43 1
  47       20       44 1
  48       21       45 1
  49       22       46 1
  50       23       47 1
  51       26       48 1
  52       27       49 1
  53       28       50 1
  54       29       51 1

@<TRIPOS>MOLECULE

  51   54
SMALL
USER_CHARGES
@<TRIPOS>ATOM
   1 C1           4.4210     5.5549     3.0951 C.3          1    LIG   0.0000
   2 C2           3.1231     6.1237     2.5454 C.3          1    LIG   0.0000
   3 N3           2.4816     5.1279     1.6739 N.pl3        1    LIG   0.0000
   4 C4           1.5852     4.1939     2.0976 C.2          1    LIG   0.0000
   5 C5           1.2276     3.4715     1.0000 C.2          1    LIG   0.0000
   6 C6           0.2400     2.3164     1.0000 C.3          1    LIG   0.0000
   7 C7           1.0000     1.0000     1.0000 C.2          1    LIG   0.0000
   8 O8           0.4000    -0.0392     1.0000 O.2          1    LIG   0.0000
   9 N9           2.3700     1.0000     1.0000 N.am         1    LIG   0.0000
  10 C10          3.0707    -0.2137     1.0000 C.ar         1    LIG   0.0000
  11 C11          3.9287    -0.4720    -0.0640 C.ar         1    LIG   0.0000
  12 C12          4.6485    -1.6609    -0.1143 C.ar         1    LIG   0.0000
  13 C13          4.5128    -2.5998     0.9031 C.ar         1    LIG   0.0000
  14 O14          5.2347    -3.7386     0.8087 O.3          1    LIG   0.0000
  15 C15          6.0609    -3.8451    -0.3413 C.3          1    LIG   0.0000
  16 C16          7.3361    -3.0468    -0.1248 C.2          1    LIG   0.0000
  17 O17          7.5136    -2.4315     0.9487 O.co2        1    LIG   0.0000
  18 O18          8.1795    -3.0070    -0.9915 O.co2        1    LIG  -1.0000
  19 C19          3.6563    -2.3501     1.9742 C.ar         1    LIG   0.0000
  20 C20          3.5022    -3.2722     3.0066 C.ar         1    LIG   0.0000
  21 C21          2.6503    -3.0331     4.0799 C.ar         1    LIG   0.0000
  22 C22          1.9309    -1.8433     4.1262 C.ar         1    LIG   0.0000
  23 C23          2.0848    -0.9238     3.0945 C.ar         1    LIG   0.0000
  24 C24          2.9376    -1.1574     2.0170 C.ar         1    LIG   0.0000
  25 C25          1.9116     3.9637    -0.1348 C.ar         1    LIG   0.0000
  26 C26          1.9422     3.6397    -1.4883 C.ar         1    LIG   0.0000
  27 C27          2.7409     4.3422    -2.3854 C.ar         1    LIG   0.0000
  28 C28          3.5240     5.3920    -1.9166 C.ar         1    LIG   0.0000
  29 C29          3.4882     5.7101    -0.5630 C.ar         1    LIG   0.0000
  30 C30          2.6868     5.0022     0.3289 C.ar         1    LIG   0.0000
  31 H            4.8571     6.2321     3.6878 H            1    LIG   0.0000
  32 H            4.2257     4.7276     3.6218 H            1    LIG   0.0000
  33 H            5.0340     5.3308     2.3375 H            1    LIG   0.0000
  34 H            2.5100     6.3478     3.3030 H            1    LIG   0.0000
  35 H            3.3183     6.9511     2.0187 H            1    LIG   0.0000
  36 H            1.2542     4.0641     3.0323 H            1    LIG   0.0000
  37 H           -0.3349     2.3693     1.8165 H            1    LIG   0.0000
  38 H           -0.3349     2.3693     0.1835 H            1    LIG   0.0000
  39 H            2.8700     1.8660     1.0000 H            1    LIG   0.0000
  40 H            4.0286     0.2011    -0.7968 H            1    LIG   0.0000
  41 H            5.2636    -1.8409    -0.8819 H            1    LIG   0.0000
  42 H            5.5732    -3.4849    -1.1366 H            1    LIG   0.0000
  43 H            6.2913    -4.8054    -0.4984 H            1    LIG   0.0000
  44 H            4.0176    -4.1286     2.9754 H            1    LIG   0.0000
  45 H            2.5560    -3.7094     4.8105 H            1    LIG   0.0000
  46 H            1.3131    -1.6525     4.8890 H            1    LIG   0.0000
  47 H            1.5677    -0.0685     3.1266 H            1    LIG   0.0000
  48 H            1.3776     2.8854    -1.8233 H            1    LIG   0.0000
  49 H            2.7518     4.0956    -3.3544 H            1    LIG   0.0000
  50 H            4.1046     5.9108    -2.5441 H            1    LIG   0.0000
  51 H            4.0504     6.4638    -0.2228 H            1    LIG   0.0000
@<TRIPOS>BOND
   1        1        2 1
   2        2        3 1
   3        3        4 1
   4        4        5 2
   5        5        6 1
   6        6        7 1
   7        7        8 2
   8        7        9 am
   9        9       10 1
  10       10       11 ar
  11       11       12 ar
  12       12       13 ar
  13       13       14 1
  14       14       15 1
  15       15       16 1
  16       16       17 ar
  17       16       18 ar
  18       13       19 ar
  19       19       20 ar
  20       20       21 ar
  21       21       22 ar
  22       22       23 ar
  23       23       24 ar
  24       24       10 ar
  25       24       19 ar
  26        5       25 1
  27       25       26 ar
  28       26       27 ar
  29       27       28 ar
  30       28       29 ar
  31       29       30 ar
  32       30       25 ar
  33       30        3 1
  34        1       31 1
  35        1       32 1
  36        1       33 1
  37        2       34 1
  38        2       35 1
  39        4       36 1
  40        6       37 1
  41        6       38 1
  42        9       39 1
  43       11       40 1
  44       12       41 1
  45       15       42 1
  46       15       43 1
  47       20       44 1
  48       21       45 1
  49       22       46 1
  50       23       47 1
  51       26       48 1
  52       27       49 1
  53       28       50 1
  54       29       51 1

@<TRIPOS>MOLECULE

  51   54
SMALL
USER_CHARGES
@<TRIPOS>ATOM
   1 C1          -2.6802     1.4236    -3.7917 C.3          1    LIG   0.0000
   2 C2          -2.6622     2.7618    -3.0712 C.3          1    LIG   0.0000
   3 N3          -1.4928     2.8240    -2.1817 N.pl3        1    LIG   0.0000
   4 C4          -1.4870     2.4115    -0.8836 C.2          1    LIG   0.0000
   5 C5          -0.2288     2.6307    -0.4111 C.2          1    LIG   0.0000
   6 C6           0.2400     2.3164     1.0000 C.3          1    LIG   0.0000
   7 C7           1.0000     1.0000     1.0000 C.2          1    LIG   0.0000
   8 O8           0.4000    -0.0392     1.0000 O.2          1    LIG   0.0000
   9 N9           2.3700     1.0000     1.0000 N.am         1    LIG   0.0000
  10 C10          3.0707    -0.2137     1.0000 C.ar         1    LIG   0.0000
  11 C11          3.9287    -0.4720    -0.0640 C.ar         1    LIG   0.0000
  12 C12          4.6485    -1.6609    -0.1143 C.ar         1    LIG   0.0000
  13 C13          4.5128    -2.5998     0.9031 C.ar         1    LIG   0.0000
  14 O14          5.2347    -3.7386     0.8087 O.3          1    LIG   0.0000
  15 C15          6.0609    -3.8451    -0.3413 C.3          1    LIG   0.0000
  16 C16          5.2187    -4.2726    -1.5323 C.2          1    LIG   0.0000
  17 O17          3.9924    -4.4699    -1.3920 O.co2        1    LIG   0.0000
  18 O18          5.7354    -4.4219    -2.6162 O.co2        1    LIG  -1.0000
  19 C19          3.6563    -2.3501     1.9742 C.ar         1    LIG   0.0000
  20 C20          3.5022    -3.2722     3.0066 C.ar         1    LIG   0.0000
  21 C21          2.6503    -3.0331     4.0799 C.ar         1    LIG   0.0000
  22 C22          1.9309    -1.8433     4.1262 C.ar         1    LIG   0.0000
  23 C23          2.0848    -0.9238     3.0945 C.ar         1    LIG   0.0000
  24 C24          2.9376    -1.1574     2.0170 C.ar         1    LIG   0.0000
  25 C25          0.5709     3.1896    -1.4339 C.ar         1    LIG   0.0000
  26 C26          1.8961     3.6027    -1.5383 C.ar         1    LIG   0.0000
  27 C27          2.4038     4.1212    -2.7255 C.ar         1    LIG   0.0000
  28 C28          1.5666     4.2263    -3.8315 C.ar         1    LIG   0.0000
  29 C29          0.2437     3.8114    -3.7197 C.ar         1    LIG   0.0000
  30 C30         -0.2575     3.2941    -2.5281 C.ar         1    LIG   0.0000
  31 H           -3.4754     1.3813    -4.3966 H            1    LIG   0.0000
  32 H           -1.8447     1.3247    -4.3322 H            1    LIG   0.0000
  33 H           -2.7323     0.6842    -3.1204 H            1    LIG   0.0000
  34 H           -2.6101     3.5011    -3.7426 H            1    LIG   0.0000
  35 H           -3.4978     2.8607    -2.5307 H            1    LIG   0.0000
  36 H           -2.2566     2.0234    -0.3764 H            1    LIG   0.0000
  37 H            0.8406     3.0480     1.3225 H            1    LIG   0.0000
  38 H           -0.5521     2.2439     1.6060 H            1    LIG   0.0000
  39 H            2.8700     1.8660     1.0000 H            1    LIG   0.0000
  40 H            4.0286     0.2011    -0.7968 H            1    LIG   0.0000
  41 H            5.2636    -1.8409    -0.8819 H            1    LIG   0.0000
  42 H            6.7751    -4.5253    -0.1768 H            1    LIG   0.0000
  43 H            6.4824    -2.9586    -0.5322 H            1    LIG   0.0000
  44 H            4.0176    -4.1286     2.9754 H            1    LIG   0.0000
  45 H            2.5560    -3.7094     4.8105 H            1    LIG   0.0000
  46 H            1.3131    -1.6525     4.8890 H            1    LIG   0.0000
  47 H            1.5677    -0.0685     3.1266 H            1    LIG   0.0000
  48 H            2.4966     3.5252    -0.7424 H            1    LIG   0.0000
  49 H            3.3582     4.4144    -2.7830 H            1    LIG   0.0000
  50 H            1.9110     4.5951    -4.6948 H            1    LIG   0.0000
  51 H           -0.3609     3.8862    -4.5128 H            1    LIG   0.0000
@<TRIPOS>BOND
   1        1        2 1
   2        2        3 1
   3        3        4 1
   4        4        5 2
   5        5        6 1
   6        6        7 1
   7        7        8 2
   8        7        9 am
   9        9       10 1
  10       10       11 ar
  11       11       12 ar
  12       12       13 ar
  13       13       14 1
  14       14       15 1
  15       15       16 1
  16       16       17 ar
  17       16       18 ar
  18       13       19 ar
  19       19       20 ar
  20       20       21 ar
  21       21       22 ar
  22       22       23 ar
  23       23       24 ar
  24       24       10 ar
  25       24       19 ar
  26        5       25 1
  27       25       26 ar
  28       26       27 ar
  29       27       28 ar
  30       28       29 ar
  31       29       30 ar
  32       30       25 ar
  33       30        3 1
  34        1       31 1
  35        1       32 1
  36        1       33 1
  37        2       34 1
  38        2       35 1
  39        4       36 1
  40        6       37 1
  41        6       38 1
  42        9       39 1
  43       11       40 1
  44       12       41 1
  45       15       42 1
  46       15       43 1
  47       20       44 1
  48       21       45 1
  49       22       46 1
  50       23       47 1
  51       26       48 1
  52       27       49 1
  53       28       50 1
  54       29       51 1

@<TRIPOS>MOLECULE

  51   54
SMALL
USER_CHARGES
@<TRIPOS>ATOM
   1 C1          -3.4513     4.0773     4.9444 C.3          1    LIG   0.0000
   2 C2          -2.6677     2.7805     5.0653 C.3          1    LIG   0.0000
   3 N3          -1.4951     2.8319     4.1792 N.pl3        1    LIG   0.0000
   4 C4          -1.4892     2.4189     2.8812 C.2          1    LIG   0.0000
   5 C5          -0.2288     2.6307     2.4111 C.2          1    LIG   0.0000
   6 C6           0.2400     2.3164     1.0000 C.3          1    LIG   0.0000
   7 C7           1.0000     1.0000     1.0000 C.2          1    LIG   0.0000
   8 O8           0.4000    -0.0392     1.0000 O.2          1    LIG   0.0000
   9 N9           2.3700     1.0000     1.0000 N.am         1    LIG   0.0000
  10 C10          3.0707    -0.2137     1.0000 C.ar         1    LIG   0.0000
  11 C11          3.9287    -0.4720    -0.0640 C.ar         1    LIG   0.0000
  12 C12          4.6485    -1.6609    -0.1143 C.ar         1    LIG   0.0000
  13 C13          4.5128    -2.5998     0.9031 C.ar         1    LIG   0.0000
  14 O14          5.2347    -3.7386     0.8087 O.3          1    LIG   0.0000
  15 C15          6.0609    -3.8451    -0.3413 C.3          1    LIG   0.0000
  16 C16          5.2187    -4.2726    -1.5323 C.2          1    LIG   0.0000
  17 O17          3.9924    -4.4699    -1.3920 O.co2        1    LIG   0.0000
  18 O18          5.7354    -4.4219    -2.6162 O.co2        1    LIG  -1.0000
  19 C19          3.6563    -2.3501     1.9742 C.ar         1    LIG   0.0000
  20 C20          3.5022    -3.2722     3.0066 C.ar         1    LIG   0.0000
  21 C21          2.6503    -3.0331     4.0799 C.ar         1    LIG   0.0000
  22 C22          1.9309    -1.8433     4.1262 C.ar         1    LIG   0.0000
  23 C23          2.0848    -0.9238     3.0945 C.ar         1    LIG   0.0000
  24 C24          2.9376    -1.1574     2.0170 C.ar         1    LIG   0.0000
  25 C25          0.5709     3.1896     3.4339 C.ar         1    LIG   0.0000
  26 C26          1.8935     3.6116     3.5354 C.ar         1    LIG   0.0000
  27 C27          2.3973     4.1438     4.7183 C.ar         1    LIG   0.0000
  28 C28          1.5577     4.2568     5.8217 C.ar         1    LIG   0.0000
  29 C29          0.2373     3.8332     5.7127 C.ar         1    LIG   0.0000
  30 C30         -0.2595     3.3011     4.5259 C.ar         1    LIG   0.0000
  31 H           -4.2486     4.0423     5.5469 H            1    LIG   0.0000
  32 H           -2.8677     4.8452     5.2081 H            1    LIG   0.0000
  33 H           -3.7532     4.1974     3.9987 H            1    LIG   0.0000
  34 H           -2.3658     2.6603     6.0110 H            1    LIG   0.0000
  35 H           -3.2513     2.0125     4.8016 H            1    LIG   0.0000
  36 H           -2.2600     2.0352     2.3727 H            1    LIG   0.0000
  37 H           -0.5521     2.2439     0.3940 H            1    LIG   0.0000
  38 H            0.8406     3.0480     0.6775 H            1    LIG   0.0000
  39 H            2.8700     1.8660     1.0000 H            1    LIG   0.0000
  40 H            4.0286     0.2011    -0.7968 H            1    LIG   0.0000
  41 H            5.2636    -1.8409    -0.8819 H            1    LIG   0.0000
  42 H            6.7751    -4.5253    -0.1768 H            1    LIG   0.0000
  43 H            6.4824    -2.9586    -0.5322 H            1    LIG   0.0000
  44 H            4.0176    -4.1286     2.9754 H            1    LIG   0.0000
  45 H            2.5560    -3.7094     4.8105 H            1    LIG   0.0000
  46 H            1.3131    -1.6525     4.8890 H            1    LIG   0.0000
  47 H            1.5677    -0.0685     3.1266 H            1    LIG   0.0000
  48 H            2.4950     3.5306     2.7407 H            1    LIG   0.0000
  49 H            3.3504     4.4412     4.7745 H            1    LIG   0.0000
  50 H            1.8987     4.6373     6.6814 H            1    LIG   0.0000
  51 H           -0.3685     3.9126     6.5043 H            1    LIG   0.0000
@<TRIPOS>BOND
   1        1        2 1
   2        2        3 1
   3        3        4 1
   4        4        5 2
   5        5        6 1
   6        6        7 1
   7        7        8 2
   8        7        9 am
   9        9       10 1
  10       10       11 ar
  11       11       12 ar
  12       12       13 ar
  13       13       14 1
  14       14       15 1
  15       15       16 1
  16       16       17 ar
  17       16       18 ar
  18       13       19 ar
  19       19       20 ar
  20       20       21 ar
  21       21       22 ar
  22       22       23 ar
  23       23       24 ar
  24       24       10 ar
  25       24       19 ar
  26        5       25 1
  27       25       26 ar
  28       26       27 ar
  29       27       28 ar
  30       28       29 ar
  31       29       30 ar
  32       30       25 ar
  33       30        3 1
  34        1       31 1
  35        1       32 1
  36        1       33 1
  37        2       34 1
  38        2       35 1
  39        4       36 1
  40        6       37 1
  41        6       38 1
  42        9       39 1
  43       11       40 1
  44       12       41 1
  45       15       42 1
  46       15       43 1
  47       20       44 1
  48       21       45 1
  49       22       46 1
  50       23       47 1
  51       26       48 1
  52       27       49 1
  53       28       50 1
  54       29       51 1

