@<TRIPOS>MOLECULE
*****
 51 54 0 0 0
SMALL
USER_CHARGES

@<TRIPOS>ATOM
      1 C1          4.4210    5.5549    3.0951 C.3     1  LIG1        0.0000
      2 C2          3.1231    6.1237    2.5454 C.3     1  LIG1        0.0000
      3 N3          2.4816    5.1279    1.6739 N.pl3   1  LIG1        0.0000
      4 C4          1.5852    4.1939    2.0976 C.2     1  LIG1        0.0000
      5 C5          1.2276    3.4715    1.0000 C.2     1  LIG1        0.0000
      6 C6          0.2400    2.3164    1.0000 C.3     1  LIG1        0.0000
      7 C7          1.0000    1.0000    1.0000 C.2     1  LIG1        0.0000
      8 O8          0.4000   -0.0392    1.0000 O.2     1  LIG1        0.0000
      9 N9          2.3700    1.0000    1.0000 N.am    1  LIG1        0.0000
     10 C10         3.0707   -0.2137    1.0000 C.3     1  LIG1        0.0000
     11 C11         3.9287   -0.4720   -0.0640 C.3     1  LIG1        0.0000
     12 C12         4.6485   -1.6609   -0.1143 C.3     1  LIG1        0.0000
     13 C13         4.5128   -2.5998    0.9031 C.3     1  LIG1        0.0000
     14 O14         5.2347   -3.7386    0.8087 O.2     1  LIG1        0.0000
     15 C15         6.0609   -3.8451   -0.3413 C.3     1  LIG1        0.0000
     16 C16         7.3361   -3.0468   -0.1248 C.3     1  LIG1        0.0000
     17 O17         7.5136   -2.4315    0.9487 O.2     1  LIG1        0.0000
     18 O18         8.1795   -3.0070   -0.9915 O.2     1  LIG1       -1.0000
     19 C19         3.6563   -2.3501    1.9742 C.3     1  LIG1        0.0000
     20 C20         3.5022   -3.2722    3.0066 C.3     1  LIG1        0.0000
     21 C21         2.6503   -3.0331    4.0799 C.3     1  LIG1        0.0000
     22 C22         1.9309   -1.8433    4.1262 C.3     1  LIG1        0.0000
     23 C23         2.0848   -0.9238    3.0945 C.3     1  LIG1        0.0000
     24 C24         2.9376   -1.1574    2.0170 C.3     1  LIG1        0.0000
     25 C25         1.9116    3.9637   -0.1348 C.3     1  LIG1        0.0000
     26 C26         1.9422    3.6397   -1.4883 C.3     1  LIG1        0.0000
     27 C27         2.7409    4.3422   -2.3854 C.3     1  LIG1        0.0000
     28 C28         3.5240    5.3920   -1.9166 C.3     1  LIG1        0.0000
     29 C29         3.4882    5.7101   -0.5630 C.3     1  LIG1        0.0000
     30 C30         2.6868    5.0022    0.3289 C.3     1  LIG1        0.0000
     31 H           4.8571    6.2321    3.6878 H       1  LIG1        0.0000
     32 H           4.2257    4.7276    3.6218 H       1  LIG1        0.0000
     33 H           5.0340    5.3308    2.3375 H       1  LIG1        0.0000
     34 H           2.5100    6.3478    3.3030 H       1  LIG1        0.0000
     35 H           3.3183    6.9511    2.0187 H       1  LIG1        0.0000
     36 H           1.2542    4.0641    3.0323 H       1  LIG1        0.0000
     37 H          -0.3349    2.3693    1.8165 H       1  LIG1        0.0000
     38 H          -0.3349    2.3693    0.1835 H       1  LIG1        0.0000
     39 H           2.8700    1.8660    1.0000 H       1  LIG1        0.0000
     40 H           4.0286    0.2011   -0.7968 H       1  LIG1        0.0000
     41 H           5.2636   -1.8409   -0.8819 H       1  LIG1        0.0000
     42 H           5.5732   -3.4849   -1.1366 H       1  LIG1        0.0000
     43 H           6.2913   -4.8054   -0.4984 H       1  LIG1        0.0000
     44 H           4.0176   -4.1286    2.9754 H       1  LIG1        0.0000
     45 H           2.5560   -3.7094    4.8105 H       1  LIG1        0.0000
     46 H           1.3131   -1.6525    4.8890 H       1  LIG1        0.0000
     47 H           1.5677   -0.0685    3.1266 H       1  LIG1        0.0000
     48 H           1.3776    2.8854   -1.8233 H       1  LIG1        0.0000
     49 H           2.7518    4.0956   -3.3544 H       1  LIG1        0.0000
     50 H           4.1046    5.9108   -2.5441 H       1  LIG1        0.0000
     51 H           4.0504    6.4638   -0.2228 H       1  LIG1        0.0000
@<TRIPOS>UNITY_ATOM_ATTR
17 1
charge -1
@<TRIPOS>BOND
     1     1     2    1
     2     2     3    1
     3     3     4    1
     4     4     5    2
     5     5     6    1
     6     6     7    1
     7     7     8    2
     8     7     9   am
     9     9    10    1
    10    10    11   ar
    11    11    12   ar
    12    12    13   ar
    13    13    14    1
    14    14    15    1
    15    15    16    1
    16    16    17    1
    17    16    18    2
    18    13    19   ar
    19    19    20   ar
    20    20    21   ar
    21    21    22   ar
    22    22    23   ar
    23    23    24   ar
    24    24    10   ar
    25    24    19   ar
    26     5    25    1
    27    25    26   ar
    28    26    27   ar
    29    27    28   ar
    30    28    29   ar
    31    29    30   ar
    32    30    25   ar
    33    30     3    1
    34     1    31    1
    35     1    32    1
    36     1    33    1
    37     2    34    1
    38     2    35    1
    39     4    36    1
    40     6    37    1
    41     6    38    1
    42     9    39    1
    43    11    40    1
    44    12    41    1
    45    15    42    1
    46    15    43    1
    47    20    44    1
    48    21    45    1
    49    22    46    1
    50    23    47    1
    51    26    48    1
    52    27    49    1
    53    28    50    1
    54    29    51    1
