@<TRIPOS>MOLECULE
*****
 51 54 0 0 0
SMALL
USER_CHARGES

@<TRIPOS>ATOM
      1 C1         -3.4501    4.0573   -2.9637 C.3     1  LIG1        0.0000
      2 C2         -2.6622    2.7618   -3.0712 C.3     1  LIG1        0.0000
      3 N3         -1.4928    2.8240   -2.1817 N.pl3   1  LIG1        0.0000
      4 C4         -1.4870    2.4115   -0.8836 C.2     1  LIG1        0.0000
      5 C5         -0.2288    2.6307   -0.4111 C.2     1  LIG1        0.0000
      6 C6          0.2400    2.3164    1.0000 C.3     1  LIG1        0.0000
      7 C7          1.0000    1.0000    1.0000 C.2     1  LIG1        0.0000
      8 O8          0.4000   -0.0392    1.0000 O.2     1  LIG1        0.0000
      9 N9          2.3700    1.0000    1.0000 N.am    1  LIG1        0.0000
     10 C10         3.0707   -0.2137    1.0000 C.3     1  LIG1        0.0000
     11 C11         2.4759   -1.3108    1.6145 C.3     1  LIG1        0.0000
     12 C12         3.1273   -2.5392    1.6436 C.3     1  LIG1        0.0000
     13 C13         4.3807   -2.6761    1.0560 C.3     1  LIG1        0.0000
     14 O14         4.9715   -3.8906    1.1098 O.2     1  LIG1        0.0000
     15 C15         4.2295   -4.9024    1.7747 C.3     1  LIG1        0.0000
     16 C16         5.0159   -6.2030    1.7551 C.3     1  LIG1        0.0000
     17 O17         6.1373   -6.2471    1.2045 O.2     1  LIG1        0.0000
     18 O18         4.5565   -7.1956    2.2725 O.2     1  LIG1       -1.0000
     19 C19         4.9849   -1.5831    0.4369 C.3     1  LIG1        0.0000
     20 C20         6.2386   -1.6924   -0.1600 C.3     1  LIG1        0.0000
     21 C21         6.8505   -0.6082   -0.7804 C.3     1  LIG1        0.0000
     22 C22         6.1965    0.6194   -0.8064 C.3     1  LIG1        0.0000
     23 C23         4.9453    0.7277   -0.2094 C.3     1  LIG1        0.0000
     24 C24         4.3268   -0.3553    0.4128 C.3     1  LIG1        0.0000
     25 C25         0.5709    3.1896   -1.4339 C.3     1  LIG1        0.0000
     26 C26         1.8961    3.6027   -1.5383 C.3     1  LIG1        0.0000
     27 C27         2.4038    4.1212   -2.7255 C.3     1  LIG1        0.0000
     28 C28         1.5666    4.2263   -3.8315 C.3     1  LIG1        0.0000
     29 C29         0.2437    3.8114   -3.7197 C.3     1  LIG1        0.0000
     30 C30        -0.2575    3.2941   -2.5281 C.3     1  LIG1        0.0000
     31 H          -4.2453    4.0150   -3.5685 H       1  LIG1        0.0000
     32 H          -3.7555    4.1843   -2.0200 H       1  LIG1        0.0000
     33 H          -2.8678    4.8248   -3.2318 H       1  LIG1        0.0000
     34 H          -3.2445    1.9943   -2.8031 H       1  LIG1        0.0000
     35 H          -2.3569    2.6348   -4.0149 H       1  LIG1        0.0000
     36 H          -2.2566    2.0234   -0.3764 H       1  LIG1        0.0000
     37 H           0.8406    3.0480    1.3225 H       1  LIG1        0.0000
     38 H          -0.5521    2.2439    1.6060 H       1  LIG1        0.0000
     39 H           2.8700    1.8660    1.0000 H       1  LIG1        0.0000
     40 H           1.5749   -1.2156    2.0377 H       1  LIG1        0.0000
     41 H           2.6945   -3.3241    2.0871 H       1  LIG1        0.0000
     42 H           3.3546   -5.0348    1.3088 H       1  LIG1        0.0000
     43 H           4.0645   -4.6269    2.7217 H       1  LIG1        0.0000
     44 H           6.7112   -2.5735   -0.1420 H       1  LIG1        0.0000
     45 H           7.7509   -0.7100   -1.2032 H       1  LIG1        0.0000
     46 H           6.6194    1.4112   -1.2472 H       1  LIG1        0.0000
     47 H           4.4748    1.6099   -0.2272 H       1  LIG1        0.0000
     48 H           2.4966    3.5252   -0.7424 H       1  LIG1        0.0000
     49 H           3.3582    4.4144   -2.7830 H       1  LIG1        0.0000
     50 H           1.9110    4.5951   -4.6948 H       1  LIG1        0.0000
     51 H          -0.3609    3.8862   -4.5128 H       1  LIG1        0.0000
@<TRIPOS>UNITY_ATOM_ATTR
17 1
charge -1
@<TRIPOS>BOND
     1     1     2    1
     2     2     3    1
     3     3     4    1
     4     4     5    2
     5     5     6    1
     6     6     7    1
     7     7     8    2
     8     7     9   am
     9     9    10    1
    10    10    11   ar
    11    11    12   ar
    12    12    13   ar
    13    13    14    1
    14    14    15    1
    15    15    16    1
    16    16    17    1
    17    16    18    2
    18    13    19   ar
    19    19    20   ar
    20    20    21   ar
    21    21    22   ar
    22    22    23   ar
    23    23    24   ar
    24    24    10   ar
    25    24    19   ar
    26     5    25    1
    27    25    26   ar
    28    26    27   ar
    29    27    28   ar
    30    28    29   ar
    31    29    30   ar
    32    30    25   ar
    33    30     3    1
    34     1    31    1
    35     1    32    1
    36     1    33    1
    37     2    34    1
    38     2    35    1
    39     4    36    1
    40     6    37    1
    41     6    38    1
    42     9    39    1
    43    11    40    1
    44    12    41    1
    45    15    42    1
    46    15    43    1
    47    20    44    1
    48    21    45    1
    49    22    46    1
    50    23    47    1
    51    26    48    1
    52    27    49    1
    53    28    50    1
    54    29    51    1
