@<TRIPOS>MOLECULE

  53   58
SMALL
USER_CHARGES
@<TRIPOS>ATOM
   1 C1           9.0641    -2.1305    -0.2000 C.ar         1    LIG   0.0000
   2 C2           7.9174    -2.6342     0.4064 C.ar         1    LIG   0.0000
   3 C3           6.7560    -1.8696     0.4424 C.ar         1    LIG   0.0000
   4 C4           6.7577    -0.6028    -0.1322 C.ar         1    LIG   0.0000
   5 C5           5.5516     0.2019    -0.0987 C.2          1    LIG   0.0000
   6 N6           4.3228    -0.2550    -0.0948 N.2          1    LIG   0.0000
   7 C7           3.5058     0.8351    -0.0594 C.2          1    LIG   0.0000
   8 C8           2.0564     0.7932    -0.0407 C.2          1    LIG   0.0000
   9 N9           1.3285    -0.2980    -0.0563 N.2          1    LIG   0.0000
  10 N10          0.0672     0.0683    -0.0305 N.2          1    LIG   0.0000
  11 C11          0.0345     1.3787     0.0016 C.2          1    LIG   0.0000
  12 C12         -1.2244     2.2311     0.0383 C.3          1    LIG   0.0000
  13 C13         -2.3309     1.4704     0.7513 C.ar         1    LIG   0.0000
  14 C14         -2.3582     0.0809     0.6938 C.ar         1    LIG   0.0000
  15 C15         -3.3745    -0.6070     1.3485 C.ar         1    LIG   0.0000
  16 C16         -4.3494     0.0944     2.0514 C.ar         1    LIG   0.0000
  17 C17         -4.3141     1.4841     2.1038 C.ar         1    LIG   0.0000
  18 C18         -3.3014     2.1799     1.4513 C.ar         1    LIG   0.0000
  19 N19         -1.6479     2.5389    -1.3351 N.pl3        1    LIG   0.0000
  20 C20         -1.7646     3.7904    -1.8598 C.2          1    LIG   0.0000
  21 C21         -2.1771     3.6304    -3.1491 C.2          1    LIG   0.0000
  22 C22         -2.3032     2.2404    -3.3732 C.2          1    LIG   0.0000
  23 N23         -1.9719     1.6494    -2.2486 N.2          1    LIG   0.0000
  24 O24          1.2649     1.8378    -0.0033 O.2          1    LIG   0.0000
  25 N25          4.2318     1.9277    -0.0437 N.2          1    LIG   0.0000
  26 N26          5.4910     1.5602    -0.0689 N.pl3        1    LIG   0.0000
  27 C27          6.5895     2.4285    -0.0668 C.ar         1    LIG   0.0000
  28 C28          6.5444     3.5973    -0.8198 C.ar         1    LIG   0.0000
  29 C29          7.6404     4.4537    -0.8124 C.ar         1    LIG   0.0000
  30 C30          8.7658     4.1378    -0.0573 C.ar         1    LIG   0.0000
  31 C31          8.8020     2.9670     0.6930 C.ar         1    LIG   0.0000
  32 C32          7.7103     2.1046     0.6907 C.ar         1    LIG   0.0000
  33 C33          7.8994    -0.0910    -0.7401 C.ar         1    LIG   0.0000
  34 C34          9.0566    -0.8626    -0.7724 C.ar         1    LIG   0.0000
  35 H           -1.0363     3.0825     0.5278 H            1    LIG   0.0000
  36 H            9.8975    -2.6825    -0.2244 H            1    LIG   0.0000
  37 H            7.9282    -3.5462     0.8164 H            1    LIG   0.0000
  38 H            5.9290    -2.2266     0.8767 H            1    LIG   0.0000
  39 H           -1.6549    -0.4180     0.1874 H            1    LIG   0.0000
  40 H           -3.4046    -1.6059     1.3140 H            1    LIG   0.0000
  41 H           -5.0788    -0.4029     2.5211 H            1    LIG   0.0000
  42 H           -5.0169     1.9831     2.6108 H            1    LIG   0.0000
  43 H           -3.2715     3.1788     1.4850 H            1    LIG   0.0000
  44 H           -1.5835     4.6554    -1.3918 H            1    LIG   0.0000
  45 H           -2.3565     4.3582    -3.8110 H            1    LIG   0.0000
  46 H           -2.5886     1.7948    -4.2217 H            1    LIG   0.0000
  47 H            5.7330     3.8193    -1.3604 H            1    LIG   0.0000
  48 H            7.6196     5.2966    -1.3500 H            1    LIG   0.0000
  49 H            9.5522     4.7555    -0.0540 H            1    LIG   0.0000
  50 H            9.6131     2.7452     1.2342 H            1    LIG   0.0000
  51 H            7.7312     1.2612     1.2276 H            1    LIG   0.0000
  52 H            7.8885     0.8213    -1.1494 H            1    LIG   0.0000
  53 H            9.8834    -0.5057    -1.2073 H            1    LIG   0.0000
@<TRIPOS>BOND
   1        1        2 ar
   2        2        3 ar
   3        3        4 ar
   4        4        5 1
   5        5        6 2
   6        6        7 1
   7        7        8 1
   8        8        9 2
   9        9       10 1
  10       10       11 2
  11       11       12 1
  12       12       13 1
  13       13       14 ar
  14       14       15 ar
  15       15       16 ar
  16       16       17 ar
  17       17       18 ar
  18       18       13 ar
  19       12       19 1
  20       19       20 1
  21       20       21 2
  22       21       22 1
  23       22       23 2
  24       23       19 1
  25       11       24 1
  26       24        8 1
  27        7       25 2
  28       25       26 1
  29       26        5 1
  30       26       27 1
  31       27       28 ar
  32       28       29 ar
  33       29       30 ar
  34       30       31 ar
  35       31       32 ar
  36       32       27 ar
  37        4       33 ar
  38       33       34 ar
  39       34        1 ar
  40       12       35 1
  41        1       36 1
  42        2       37 1
  43        3       38 1
  44       14       39 1
  45       15       40 1
  46       16       41 1
  47       17       42 1
  48       18       43 1
  49       20       44 1
  50       21       45 1
  51       22       46 1
  52       28       47 1
  53       29       48 1
  54       30       49 1
  55       31       50 1
  56       32       51 1
  57       33       52 1
  58       34       53 1

@<TRIPOS>MOLECULE

  53   58
SMALL
USER_CHARGES
@<TRIPOS>ATOM
   1 C1           9.0641    -2.1305    -0.2000 C.ar         1    LIG   0.0000
   2 C2           7.9174    -2.6342     0.4064 C.ar         1    LIG   0.0000
   3 C3           6.7560    -1.8696     0.4424 C.ar         1    LIG   0.0000
   4 C4           6.7577    -0.6028    -0.1322 C.ar         1    LIG   0.0000
   5 C5           5.5516     0.2019    -0.0987 C.2          1    LIG   0.0000
   6 N6           4.3228    -0.2550    -0.0948 N.2          1    LIG   0.0000
   7 C7           3.5058     0.8351    -0.0594 C.2          1    LIG   0.0000
   8 C8           2.0564     0.7932    -0.0407 C.2          1    LIG   0.0000
   9 N9           1.3285    -0.2980    -0.0563 N.2          1    LIG   0.0000
  10 N10          0.0672     0.0683    -0.0305 N.2          1    LIG   0.0000
  11 C11          0.0345     1.3787     0.0016 C.2          1    LIG   0.0000
  12 C12         -1.2244     2.2311     0.0383 C.3          1    LIG   0.0000
  13 C13         -1.2259     3.0787     1.3004 C.ar         1    LIG   0.0000
  14 C14         -0.5974     2.6057     2.4476 C.ar         1    LIG   0.0000
  15 C15         -0.6042     3.3874     3.5981 C.ar         1    LIG   0.0000
  16 C16         -1.2346     4.6280     3.5933 C.ar         1    LIG   0.0000
  17 C17         -1.8604     5.0932     2.4414 C.ar         1    LIG   0.0000
  18 C18         -1.8589     4.3173     1.2865 C.ar         1    LIG   0.0000
  19 N19         -2.4073     1.3586     0.0327 N.pl3        1    LIG   0.0000
  20 C20         -3.3818     1.3617    -0.9189 C.2          1    LIG   0.0000
  21 C21         -4.2832     0.4081    -0.5499 C.2          1    LIG   0.0000
  22 C22         -3.8122    -0.1616     0.6549 C.2          1    LIG   0.0000
  23 N23         -2.6889     0.4531     0.9446 N.2          1    LIG   0.0000
  24 O24          1.2649     1.8378    -0.0033 O.2          1    LIG   0.0000
  25 N25          4.2318     1.9277    -0.0437 N.2          1    LIG   0.0000
  26 N26          5.4910     1.5602    -0.0689 N.pl3        1    LIG   0.0000
  27 C27          6.5895     2.4285    -0.0668 C.ar         1    LIG   0.0000
  28 C28          6.5444     3.5973    -0.8198 C.ar         1    LIG   0.0000
  29 C29          7.6404     4.4537    -0.8124 C.ar         1    LIG   0.0000
  30 C30          8.7658     4.1378    -0.0573 C.ar         1    LIG   0.0000
  31 C31          8.8020     2.9670     0.6930 C.ar         1    LIG   0.0000
  32 C32          7.7103     2.1046     0.6907 C.ar         1    LIG   0.0000
  33 C33          7.8994    -0.0910    -0.7401 C.ar         1    LIG   0.0000
  34 C34          9.0566    -0.8626    -0.7724 C.ar         1    LIG   0.0000
  35 H           -1.2465     2.8277    -0.7639 H            1    LIG   0.0000
  36 H            9.8975    -2.6825    -0.2244 H            1    LIG   0.0000
  37 H            7.9282    -3.5462     0.8164 H            1    LIG   0.0000
  38 H            5.9290    -2.2266     0.8767 H            1    LIG   0.0000
  39 H           -0.1457     1.7136     2.4453 H            1    LIG   0.0000
  40 H           -0.1558     3.0578     4.4290 H            1    LIG   0.0000
  41 H           -1.2378     5.1877     4.4220 H            1    LIG   0.0000
  42 H           -2.3116     5.9856     2.4433 H            1    LIG   0.0000
  43 H           -2.3078     4.6464     0.4558 H            1    LIG   0.0000
  44 H           -3.4269     1.9475    -1.7281 H            1    LIG   0.0000
  45 H           -5.1192     0.1589    -1.0388 H            1    LIG   0.0000
  46 H           -4.2489    -0.8899     1.1830 H            1    LIG   0.0000
  47 H            5.7330     3.8193    -1.3604 H            1    LIG   0.0000
  48 H            7.6196     5.2966    -1.3500 H            1    LIG   0.0000
  49 H            9.5522     4.7555    -0.0540 H            1    LIG   0.0000
  50 H            9.6131     2.7452     1.2342 H            1    LIG   0.0000
  51 H            7.7312     1.2612     1.2276 H            1    LIG   0.0000
  52 H            7.8885     0.8213    -1.1494 H            1    LIG   0.0000
  53 H            9.8834    -0.5057    -1.2073 H            1    LIG   0.0000
@<TRIPOS>BOND
   1        1        2 ar
   2        2        3 ar
   3        3        4 ar
   4        4        5 1
   5        5        6 2
   6        6        7 1
   7        7        8 1
   8        8        9 2
   9        9       10 1
  10       10       11 2
  11       11       12 1
  12       12       13 1
  13       13       14 ar
  14       14       15 ar
  15       15       16 ar
  16       16       17 ar
  17       17       18 ar
  18       18       13 ar
  19       12       19 1
  20       19       20 1
  21       20       21 2
  22       21       22 1
  23       22       23 2
  24       23       19 1
  25       11       24 1
  26       24        8 1
  27        7       25 2
  28       25       26 1
  29       26        5 1
  30       26       27 1
  31       27       28 ar
  32       28       29 ar
  33       29       30 ar
  34       30       31 ar
  35       31       32 ar
  36       32       27 ar
  37        4       33 ar
  38       33       34 ar
  39       34        1 ar
  40       12       35 1
  41        1       36 1
  42        2       37 1
  43        3       38 1
  44       14       39 1
  45       15       40 1
  46       16       41 1
  47       17       42 1
  48       18       43 1
  49       20       44 1
  50       21       45 1
  51       22       46 1
  52       28       47 1
  53       29       48 1
  54       30       49 1
  55       31       50 1
  56       32       51 1
  57       33       52 1
  58       34       53 1

@<TRIPOS>MOLECULE

  53   58
SMALL
USER_CHARGES
@<TRIPOS>ATOM
   1 C1           9.0641    -2.1305    -0.2000 C.ar         1    LIG   0.0000
   2 C2           7.9174    -2.6342     0.4064 C.ar         1    LIG   0.0000
   3 C3           6.7560    -1.8696     0.4424 C.ar         1    LIG   0.0000
   4 C4           6.7577    -0.6028    -0.1322 C.ar         1    LIG   0.0000
   5 C5           5.5516     0.2019    -0.0987 C.2          1    LIG   0.0000
   6 N6           4.3228    -0.2550    -0.0948 N.2          1    LIG   0.0000
   7 C7           3.5058     0.8351    -0.0594 C.2          1    LIG   0.0000
   8 C8           2.0564     0.7932    -0.0407 C.2          1    LIG   0.0000
   9 N9           1.3285    -0.2980    -0.0563 N.2          1    LIG   0.0000
  10 N10          0.0672     0.0683    -0.0305 N.2          1    LIG   0.0000
  11 C11          0.0345     1.3787     0.0016 C.2          1    LIG   0.0000
  12 C12         -1.2244     2.2311     0.0383 C.3          1    LIG   0.0000
  13 C13         -2.0619     1.9516    -1.1993 C.ar         1    LIG   0.0000
  14 C14         -1.4361     1.5752    -2.3831 C.ar         1    LIG   0.0000
  15 C15         -2.2099     1.3221    -3.5108 C.ar         1    LIG   0.0000
  16 C16         -3.5945     1.4460    -3.4473 C.ar         1    LIG   0.0000
  17 C17         -4.2120     1.8227    -2.2591 C.ar         1    LIG   0.0000
  18 C18         -3.4453     2.0783    -1.1267 C.ar         1    LIG   0.0000
  19 N19         -0.8527     3.6528     0.0675 N.pl3        1    LIG   0.0000
  20 C20         -1.1786     4.5303     1.0571 C.2          1    LIG   0.0000
  21 C21         -0.6424     5.7311     0.6987 C.2          1    LIG   0.0000
  22 C22          0.0127     5.5384    -0.5389 C.2          1    LIG   0.0000
  23 N23         -0.1532     4.2754    -0.8565 N.2          1    LIG   0.0000
  24 O24          1.2649     1.8378    -0.0033 O.2          1    LIG   0.0000
  25 N25          4.2318     1.9277    -0.0437 N.2          1    LIG   0.0000
  26 N26          5.4910     1.5602    -0.0689 N.pl3        1    LIG   0.0000
  27 C27          6.5895     2.4285    -0.0668 C.ar         1    LIG   0.0000
  28 C28          6.5444     3.5973    -0.8198 C.ar         1    LIG   0.0000
  29 C29          7.6404     4.4537    -0.8124 C.ar         1    LIG   0.0000
  30 C30          8.7658     4.1378    -0.0573 C.ar         1    LIG   0.0000
  31 C31          8.8020     2.9670     0.6930 C.ar         1    LIG   0.0000
  32 C32          7.7103     2.1046     0.6907 C.ar         1    LIG   0.0000
  33 C33          7.8994    -0.0910    -0.7401 C.ar         1    LIG   0.0000
  34 C34          9.0566    -0.8626    -0.7724 C.ar         1    LIG   0.0000
  35 H           -1.7542     2.0082     0.8566 H            1    LIG   0.0000
  36 H            9.8975    -2.6825    -0.2244 H            1    LIG   0.0000
  37 H            7.9282    -3.5462     0.8164 H            1    LIG   0.0000
  38 H            5.9290    -2.2266     0.8767 H            1    LIG   0.0000
  39 H           -0.4407     1.4875    -2.4230 H            1    LIG   0.0000
  40 H           -1.7712     1.0510    -4.3676 H            1    LIG   0.0000
  41 H           -4.1483     1.2633    -4.2597 H            1    LIG   0.0000
  42 H           -5.2074     1.9098    -2.2188 H            1    LIG   0.0000
  43 H           -3.8838     2.3502    -0.2700 H            1    LIG   0.0000
  44 H           -1.7067     4.3326     1.8830 H            1    LIG   0.0000
  45 H           -0.7013     6.5863     1.2138 H            1    LIG   0.0000
  46 H            0.5056     6.2286    -1.0686 H            1    LIG   0.0000
  47 H            5.7330     3.8193    -1.3604 H            1    LIG   0.0000
  48 H            7.6196     5.2966    -1.3500 H            1    LIG   0.0000
  49 H            9.5522     4.7555    -0.0540 H            1    LIG   0.0000
  50 H            9.6131     2.7452     1.2342 H            1    LIG   0.0000
  51 H            7.7312     1.2612     1.2276 H            1    LIG   0.0000
  52 H            7.8885     0.8213    -1.1494 H            1    LIG   0.0000
  53 H            9.8834    -0.5057    -1.2073 H            1    LIG   0.0000
@<TRIPOS>BOND
   1        1        2 ar
   2        2        3 ar
   3        3        4 ar
   4        4        5 1
   5        5        6 2
   6        6        7 1
   7        7        8 1
   8        8        9 2
   9        9       10 1
  10       10       11 2
  11       11       12 1
  12       12       13 1
  13       13       14 ar
  14       14       15 ar
  15       15       16 ar
  16       16       17 ar
  17       17       18 ar
  18       18       13 ar
  19       12       19 1
  20       19       20 1
  21       20       21 2
  22       21       22 1
  23       22       23 2
  24       23       19 1
  25       11       24 1
  26       24        8 1
  27        7       25 2
  28       25       26 1
  29       26        5 1
  30       26       27 1
  31       27       28 ar
  32       28       29 ar
  33       29       30 ar
  34       30       31 ar
  35       31       32 ar
  36       32       27 ar
  37        4       33 ar
  38       33       34 ar
  39       34        1 ar
  40       12       35 1
  41        1       36 1
  42        2       37 1
  43        3       38 1
  44       14       39 1
  45       15       40 1
  46       16       41 1
  47       17       42 1
  48       18       43 1
  49       20       44 1
  50       21       45 1
  51       22       46 1
  52       28       47 1
  53       29       48 1
  54       30       49 1
  55       31       50 1
  56       32       51 1
  57       33       52 1
  58       34       53 1

@<TRIPOS>MOLECULE

  53   58
SMALL
USER_CHARGES
@<TRIPOS>ATOM
   1 C1           9.0641    -2.1305    -0.2000 C.ar         1    LIG   0.0000
   2 C2           7.9174    -2.6342     0.4064 C.ar         1    LIG   0.0000
   3 C3           6.7560    -1.8696     0.4424 C.ar         1    LIG   0.0000
   4 C4           6.7577    -0.6028    -0.1322 C.ar         1    LIG   0.0000
   5 C5           5.5516     0.2019    -0.0987 C.2          1    LIG   0.0000
   6 N6           4.3228    -0.2550    -0.0948 N.2          1    LIG   0.0000
   7 C7           3.5058     0.8351    -0.0594 C.2          1    LIG   0.0000
   8 C8           2.0564     0.7932    -0.0407 C.2          1    LIG   0.0000
   9 N9           1.3285    -0.2980    -0.0563 N.2          1    LIG   0.0000
  10 N10          0.0672     0.0683    -0.0305 N.2          1    LIG   0.0000
  11 C11          0.0345     1.3787     0.0016 C.2          1    LIG   0.0000
  12 C12         -1.2244     2.2311     0.0383 C.3          1    LIG   0.0000
  13 C13         -0.9569     3.5598    -0.6503 C.ar         1    LIG   0.0000
  14 C14          0.3247     4.1000    -0.6293 C.ar         1    LIG   0.0000
  15 C15          0.5604     5.3165    -1.2612 C.ar         1    LIG   0.0000
  16 C16         -0.4798     5.9795    -1.9054 C.ar         1    LIG   0.0000
  17 C17         -1.7583     5.4318    -1.9216 C.ar         1    LIG   0.0000
  18 C18         -2.0028     4.2158    -1.2914 C.ar         1    LIG   0.0000
  19 N19         -1.6121     2.4725     1.4354 N.pl3        1    LIG   0.0000
  20 C20         -2.7957     2.1015     1.9980 C.2          1    LIG   0.0000
  21 C21         -2.7485     2.5089     3.2980 C.2          1    LIG   0.0000
  22 C22         -1.4964     3.1364     3.4892 C.2          1    LIG   0.0000
  23 N23         -0.8701     3.0791     2.3367 N.2          1    LIG   0.0000
  24 O24          1.2649     1.8378    -0.0033 O.2          1    LIG   0.0000
  25 N25          4.2318     1.9277    -0.0437 N.2          1    LIG   0.0000
  26 N26          5.4910     1.5602    -0.0689 N.pl3        1    LIG   0.0000
  27 C27          6.5895     2.4285    -0.0668 C.ar         1    LIG   0.0000
  28 C28          6.5444     3.5973    -0.8198 C.ar         1    LIG   0.0000
  29 C29          7.6404     4.4537    -0.8124 C.ar         1    LIG   0.0000
  30 C30          8.7658     4.1378    -0.0573 C.ar         1    LIG   0.0000
  31 C31          8.8020     2.9670     0.6930 C.ar         1    LIG   0.0000
  32 C32          7.7103     2.1046     0.6907 C.ar         1    LIG   0.0000
  33 C33          7.8994    -0.0910    -0.7401 C.ar         1    LIG   0.0000
  34 C34          9.0566    -0.8626    -0.7724 C.ar         1    LIG   0.0000
  35 H           -1.9644     1.7533    -0.4351 H            1    LIG   0.0000
  36 H            9.8975    -2.6825    -0.2244 H            1    LIG   0.0000
  37 H            7.9282    -3.5462     0.8164 H            1    LIG   0.0000
  38 H            5.9290    -2.2266     0.8767 H            1    LIG   0.0000
  39 H            1.0685     3.6191    -0.1651 H            1    LIG   0.0000
  40 H            1.4776     5.7147    -1.2526 H            1    LIG   0.0000
  41 H           -0.3072     6.8539    -2.3589 H            1    LIG   0.0000
  42 H           -2.5021     5.9123    -2.3863 H            1    LIG   0.0000
  43 H           -2.9201     3.8177    -1.2992 H            1    LIG   0.0000
  44 H           -3.5501     1.6247     1.5467 H            1    LIG   0.0000
  45 H           -3.4640     2.3870     3.9859 H            1    LIG   0.0000
  46 H           -1.1547     3.5439     4.3360 H            1    LIG   0.0000
  47 H            5.7330     3.8193    -1.3604 H            1    LIG   0.0000
  48 H            7.6196     5.2966    -1.3500 H            1    LIG   0.0000
  49 H            9.5522     4.7555    -0.0540 H            1    LIG   0.0000
  50 H            9.6131     2.7452     1.2342 H            1    LIG   0.0000
  51 H            7.7312     1.2612     1.2276 H            1    LIG   0.0000
  52 H            7.8885     0.8213    -1.1494 H            1    LIG   0.0000
  53 H            9.8834    -0.5057    -1.2073 H            1    LIG   0.0000
@<TRIPOS>BOND
   1        1        2 ar
   2        2        3 ar
   3        3        4 ar
   4        4        5 1
   5        5        6 2
   6        6        7 1
   7        7        8 1
   8        8        9 2
   9        9       10 1
  10       10       11 2
  11       11       12 1
  12       12       13 1
  13       13       14 ar
  14       14       15 ar
  15       15       16 ar
  16       16       17 ar
  17       17       18 ar
  18       18       13 ar
  19       12       19 1
  20       19       20 1
  21       20       21 2
  22       21       22 1
  23       22       23 2
  24       23       19 1
  25       11       24 1
  26       24        8 1
  27        7       25 2
  28       25       26 1
  29       26        5 1
  30       26       27 1
  31       27       28 ar
  32       28       29 ar
  33       29       30 ar
  34       30       31 ar
  35       31       32 ar
  36       32       27 ar
  37        4       33 ar
  38       33       34 ar
  39       34        1 ar
  40       12       35 1
  41        1       36 1
  42        2       37 1
  43        3       38 1
  44       14       39 1
  45       15       40 1
  46       16       41 1
  47       17       42 1
  48       18       43 1
  49       20       44 1
  50       21       45 1
  51       22       46 1
  52       28       47 1
  53       29       48 1
  54       30       49 1
  55       31       50 1
  56       32       51 1
  57       33       52 1
  58       34       53 1

@<TRIPOS>MOLECULE

  53   58
SMALL
USER_CHARGES
@<TRIPOS>ATOM
   1 C1           9.0448    -1.9197    -1.2595 C.ar         1    LIG   0.0000
   2 C2           7.7972    -2.5027    -1.4598 C.ar         1    LIG   0.0000
   3 C3           6.6404    -1.7924    -1.1568 C.ar         1    LIG   0.0000
   4 C4           6.7480    -0.4999    -0.6540 C.ar         1    LIG   0.0000
   5 C5           5.5472     0.2480    -0.3345 C.2          1    LIG   0.0000
   6 N6           4.3157    -0.1794    -0.4740 N.2          1    LIG   0.0000
   7 C7           3.5058     0.8351    -0.0594 C.2          1    LIG   0.0000
   8 C8           2.0564     0.7932    -0.0407 C.2          1    LIG   0.0000
   9 N9           1.3285    -0.2980    -0.0563 N.2          1    LIG   0.0000
  10 N10          0.0672     0.0683    -0.0305 N.2          1    LIG   0.0000
  11 C11          0.0345     1.3787     0.0016 C.2          1    LIG   0.0000
  12 C12         -1.2244     2.2311     0.0383 C.3          1    LIG   0.0000
  13 C13         -2.3309     1.4704     0.7513 C.ar         1    LIG   0.0000
  14 C14         -2.1512     1.0715     2.0717 C.ar         1    LIG   0.0000
  15 C15         -3.1684     0.3754     2.7162 C.ar         1    LIG   0.0000
  16 C16         -4.3500     0.0854     2.0408 C.ar         1    LIG   0.0000
  17 C17         -4.5212     0.4885     0.7205 C.ar         1    LIG   0.0000
  18 C18         -3.5084     1.1846     0.0682 C.ar         1    LIG   0.0000
  19 N19         -1.6479     2.5389    -1.3351 N.pl3        1    LIG   0.0000
  20 C20         -1.0116     2.1235    -2.4656 C.2          1    LIG   0.0000
  21 C21         -1.7263     2.6208    -3.5144 C.2          1    LIG   0.0000
  22 C22         -2.8091     3.3477    -2.9690 C.2          1    LIG   0.0000
  23 N23         -2.7002     3.2568    -1.6639 N.2          1    LIG   0.0000
  24 O24          1.2649     1.8378    -0.0033 O.2          1    LIG   0.0000
  25 N25          4.2386     1.8546     0.3211 N.2          1    LIG   0.0000
  26 N26          5.4953     1.5145     0.1584 N.pl3        1    LIG   0.0000
  27 C27          6.5990     2.3269     0.4454 C.ar         1    LIG   0.0000
  28 C28          6.8829     2.6611     1.7655 C.ar         1    LIG   0.0000
  29 C29          7.9809     3.4692     2.0414 C.ar         1    LIG   0.0000
  30 C30          8.7819     3.9339     1.0026 C.ar         1    LIG   0.0000
  31 C31          8.4907     3.5945    -0.3145 C.ar         1    LIG   0.0000
  32 C32          7.3939     2.7872    -0.5992 C.ar         1    LIG   0.0000
  33 C33          7.9908     0.0907    -0.4502 C.ar         1    LIG   0.0000
  34 C34          9.1430    -0.6265    -0.7564 C.ar         1    LIG   0.0000
  35 H           -1.0363     3.0825     0.5278 H            1    LIG   0.0000
  36 H            9.8748    -2.4329    -1.4782 H            1    LIG   0.0000
  37 H            7.7324    -3.4327    -1.8216 H            1    LIG   0.0000
  38 H            5.7412    -2.2063    -1.2990 H            1    LIG   0.0000
  39 H           -1.3001     1.2828     2.5523 H            1    LIG   0.0000
  40 H           -3.0506     0.0832     3.6653 H            1    LIG   0.0000
  41 H           -5.0795    -0.4152     2.5068 H            1    LIG   0.0000
  42 H           -5.3725     0.2778     0.2399 H            1    LIG   0.0000
  43 H           -3.6257     1.4762    -0.8811 H            1    LIG   0.0000
  44 H           -0.1841     1.5644    -2.5161 H            1    LIG   0.0000
  45 H           -1.5231     2.4953    -4.4854 H            1    LIG   0.0000
  46 H           -3.5187     3.8353    -3.4776 H            1    LIG   0.0000
  47 H            6.3040     2.3241     2.5080 H            1    LIG   0.0000
  48 H            8.1947     3.7163     2.9864 H            1    LIG   0.0000
  49 H            9.5706     4.5147     1.2041 H            1    LIG   0.0000
  50 H            9.0699     3.9308    -1.0571 H            1    LIG   0.0000
  51 H            7.1794     2.5406    -1.5443 H            1    LIG   0.0000
  52 H            8.0555     1.0204    -0.0876 H            1    LIG   0.0000
  53 H           10.0421    -0.2122    -0.6148 H            1    LIG   0.0000
@<TRIPOS>BOND
   1        1        2 ar
   2        2        3 ar
   3        3        4 ar
   4        4        5 1
   5        5        6 2
   6        6        7 1
   7        7        8 1
   8        8        9 2
   9        9       10 1
  10       10       11 2
  11       11       12 1
  12       12       13 1
  13       13       14 ar
  14       14       15 ar
  15       15       16 ar
  16       16       17 ar
  17       17       18 ar
  18       18       13 ar
  19       12       19 1
  20       19       20 1
  21       20       21 2
  22       21       22 1
  23       22       23 2
  24       23       19 1
  25       11       24 1
  26       24        8 1
  27        7       25 2
  28       25       26 1
  29       26        5 1
  30       26       27 1
  31       27       28 ar
  32       28       29 ar
  33       29       30 ar
  34       30       31 ar
  35       31       32 ar
  36       32       27 ar
  37        4       33 ar
  38       33       34 ar
  39       34        1 ar
  40       12       35 1
  41        1       36 1
  42        2       37 1
  43        3       38 1
  44       14       39 1
  45       15       40 1
  46       16       41 1
  47       17       42 1
  48       18       43 1
  49       20       44 1
  50       21       45 1
  51       22       46 1
  52       28       47 1
  53       29       48 1
  54       30       49 1
  55       31       50 1
  56       32       51 1
  57       33       52 1
  58       34       53 1

@<TRIPOS>MOLECULE

  53   58
SMALL
USER_CHARGES
@<TRIPOS>ATOM
   1 C1           9.0448    -1.9197    -1.2595 C.ar         1    LIG   0.0000
   2 C2           7.7972    -2.5027    -1.4598 C.ar         1    LIG   0.0000
   3 C3           6.6404    -1.7924    -1.1568 C.ar         1    LIG   0.0000
   4 C4           6.7480    -0.4999    -0.6540 C.ar         1    LIG   0.0000
   5 C5           5.5472     0.2480    -0.3345 C.2          1    LIG   0.0000
   6 N6           4.3157    -0.1794    -0.4740 N.2          1    LIG   0.0000
   7 C7           3.5058     0.8351    -0.0594 C.2          1    LIG   0.0000
   8 C8           2.0564     0.7932    -0.0407 C.2          1    LIG   0.0000
   9 N9           1.3285    -0.2980    -0.0563 N.2          1    LIG   0.0000
  10 N10          0.0672     0.0683    -0.0305 N.2          1    LIG   0.0000
  11 C11          0.0345     1.3787     0.0016 C.2          1    LIG   0.0000
  12 C12         -1.2244     2.2311     0.0383 C.3          1    LIG   0.0000
  13 C13         -1.2259     3.0787     1.3004 C.ar         1    LIG   0.0000
  14 C14         -0.1943     3.9852     1.5217 C.ar         1    LIG   0.0000
  15 C15         -0.2031     4.7561     2.6794 C.ar         1    LIG   0.0000
  16 C16         -1.2363     4.6165     3.6011 C.ar         1    LIG   0.0000
  17 C17         -2.2641     3.7076     3.3714 C.ar         1    LIG   0.0000
  18 C18         -2.2625     2.9321     2.2163 C.ar         1    LIG   0.0000
  19 N19         -2.4073     1.3586     0.0327 N.pl3        1    LIG   0.0000
  20 C20         -2.3796    -0.0028     0.0009 C.2          1    LIG   0.0000
  21 C21         -3.6789    -0.4146     0.0102 C.2          1    LIG   0.0000
  22 C22         -4.4809     0.7488     0.0473 C.2          1    LIG   0.0000
  23 N23         -3.6564     1.7704     0.0588 N.2          1    LIG   0.0000
  24 O24          1.2649     1.8378    -0.0033 O.2          1    LIG   0.0000
  25 N25          4.2386     1.8546     0.3211 N.2          1    LIG   0.0000
  26 N26          5.4953     1.5145     0.1584 N.pl3        1    LIG   0.0000
  27 C27          6.5990     2.3269     0.4454 C.ar         1    LIG   0.0000
  28 C28          6.8829     2.6611     1.7655 C.ar         1    LIG   0.0000
  29 C29          7.9809     3.4692     2.0414 C.ar         1    LIG   0.0000
  30 C30          8.7819     3.9339     1.0026 C.ar         1    LIG   0.0000
  31 C31          8.4907     3.5945    -0.3145 C.ar         1    LIG   0.0000
  32 C32          7.3939     2.7872    -0.5992 C.ar         1    LIG   0.0000
  33 C33          7.9908     0.0907    -0.4502 C.ar         1    LIG   0.0000
  34 C34          9.1430    -0.6265    -0.7564 C.ar         1    LIG   0.0000
  35 H           -1.2465     2.8277    -0.7639 H            1    LIG   0.0000
  36 H            9.8748    -2.4329    -1.4782 H            1    LIG   0.0000
  37 H            7.7324    -3.4327    -1.8216 H            1    LIG   0.0000
  38 H            5.7412    -2.2063    -1.2990 H            1    LIG   0.0000
  39 H            0.5455     4.0815     0.8558 H            1    LIG   0.0000
  40 H            0.5332     5.4109     2.8494 H            1    LIG   0.0000
  41 H           -1.2400     5.1721     4.4324 H            1    LIG   0.0000
  42 H           -3.0043     3.6116     4.0369 H            1    LIG   0.0000
  43 H           -2.9984     2.2766     2.0464 H            1    LIG   0.0000
  44 H           -1.5669    -0.5850    -0.0243 H            1    LIG   0.0000
  45 H           -4.0033    -1.3604    -0.0061 H            1    LIG   0.0000
  46 H           -5.4801     0.7863     0.0618 H            1    LIG   0.0000
  47 H            6.3040     2.3241     2.5080 H            1    LIG   0.0000
  48 H            8.1947     3.7163     2.9864 H            1    LIG   0.0000
  49 H            9.5706     4.5147     1.2041 H            1    LIG   0.0000
  50 H            9.0699     3.9308    -1.0571 H            1    LIG   0.0000
  51 H            7.1794     2.5406    -1.5443 H            1    LIG   0.0000
  52 H            8.0555     1.0204    -0.0876 H            1    LIG   0.0000
  53 H           10.0421    -0.2122    -0.6148 H            1    LIG   0.0000
@<TRIPOS>BOND
   1        1        2 ar
   2        2        3 ar
   3        3        4 ar
   4        4        5 1
   5        5        6 2
   6        6        7 1
   7        7        8 1
   8        8        9 2
   9        9       10 1
  10       10       11 2
  11       11       12 1
  12       12       13 1
  13       13       14 ar
  14       14       15 ar
  15       15       16 ar
  16       16       17 ar
  17       17       18 ar
  18       18       13 ar
  19       12       19 1
  20       19       20 1
  21       20       21 2
  22       21       22 1
  23       22       23 2
  24       23       19 1
  25       11       24 1
  26       24        8 1
  27        7       25 2
  28       25       26 1
  29       26        5 1
  30       26       27 1
  31       27       28 ar
  32       28       29 ar
  33       29       30 ar
  34       30       31 ar
  35       31       32 ar
  36       32       27 ar
  37        4       33 ar
  38       33       34 ar
  39       34        1 ar
  40       12       35 1
  41        1       36 1
  42        2       37 1
  43        3       38 1
  44       14       39 1
  45       15       40 1
  46       16       41 1
  47       17       42 1
  48       18       43 1
  49       20       44 1
  50       21       45 1
  51       22       46 1
  52       28       47 1
  53       29       48 1
  54       30       49 1
  55       31       50 1
  56       32       51 1
  57       33       52 1
  58       34       53 1

@<TRIPOS>MOLECULE

  53   58
SMALL
USER_CHARGES
@<TRIPOS>ATOM
   1 C1           9.0713    -1.9696     0.8699 C.ar         1    LIG   0.0000
   2 C2           8.1648    -1.7519     1.9030 C.ar         1    LIG   0.0000
   3 C3           7.0029    -1.0245     1.6676 C.ar         1    LIG   0.0000
   4 C4           6.7621    -0.5211     0.3934 C.ar         1    LIG   0.0000
   5 C5           5.5536     0.2392     0.1388 C.2          1    LIG   0.0000
   6 N6           4.3260    -0.1964     0.2875 N.2          1    LIG   0.0000
   7 C7           3.5058     0.8351    -0.0594 C.2          1    LIG   0.0000
   8 C8           2.0564     0.7932    -0.0407 C.2          1    LIG   0.0000
   9 N9           1.3285    -0.2980    -0.0563 N.2          1    LIG   0.0000
  10 N10          0.0672     0.0683    -0.0305 N.2          1    LIG   0.0000
  11 C11          0.0345     1.3787     0.0016 C.2          1    LIG   0.0000
  12 C12         -1.2244     2.2311     0.0383 C.3          1    LIG   0.0000
  13 C13         -2.0619     1.9516    -1.1993 C.ar         1    LIG   0.0000
  14 C14         -2.5298     0.6634    -1.4371 C.ar         1    LIG   0.0000
  15 C15         -3.2948     0.4165    -2.5722 C.ar         1    LIG   0.0000
  16 C16         -3.5848     1.4521    -3.4553 C.ar         1    LIG   0.0000
  17 C17         -3.1129     2.7374    -3.2094 C.ar         1    LIG   0.0000
  18 C18         -2.3466     2.9928    -2.0767 C.ar         1    LIG   0.0000
  19 N19         -0.8527     3.6528     0.0675 N.pl3        1    LIG   0.0000
  20 C20          0.4222     4.1322     0.0614 C.2          1    LIG   0.0000
  21 C21          0.3226     5.4913     0.0929 C.2          1    LIG   0.0000
  22 C22         -1.0556     5.8042     0.1194 C.2          1    LIG   0.0000
  23 N23         -1.6987     4.6597     0.1026 N.2          1    LIG   0.0000
  24 O24          1.2649     1.8378    -0.0033 O.2          1    LIG   0.0000
  25 N25          4.2286     1.8717    -0.4116 N.2          1    LIG   0.0000
  26 N26          5.4891     1.5254    -0.2981 N.pl3        1    LIG   0.0000
  27 C27          6.5851     2.3489    -0.5831 C.ar         1    LIG   0.0000
  28 C28          7.6107     2.4765     0.3480 C.ar         1    LIG   0.0000
  29 C29          8.6953     3.2972     0.0569 C.ar         1    LIG   0.0000
  30 C30          8.7466     3.9796    -1.1547 C.ar         1    LIG   0.0000
  31 C31          7.7167     3.8459    -2.0801 C.ar         1    LIG   0.0000
  32 C32          6.6279     3.0276    -1.7966 C.ar         1    LIG   0.0000
  33 C33          7.6628    -0.7335    -0.6452 C.ar         1    LIG   0.0000
  34 C34          8.8223    -1.4627    -0.4013 C.ar         1    LIG   0.0000
  35 H           -1.7542     2.0082     0.8566 H            1    LIG   0.0000
  36 H            9.9058    -2.4930     1.0422 H            1    LIG   0.0000
  37 H            8.3488    -2.1185     2.8150 H            1    LIG   0.0000
  38 H            6.3478    -0.8651     2.4062 H            1    LIG   0.0000
  39 H           -2.3186    -0.0769    -0.7989 H            1    LIG   0.0000
  40 H           -3.6365    -0.5056    -2.7537 H            1    LIG   0.0000
  41 H           -4.1350     1.2715    -4.2705 H            1    LIG   0.0000
  42 H           -3.3247     3.4780    -3.8471 H            1    LIG   0.0000
  43 H           -2.0041     3.9147    -1.8953 H            1    LIG   0.0000
  44 H            1.2645     3.5937     0.0383 H            1    LIG   0.0000
  45 H            1.0807     6.1434     0.0965 H            1    LIG   0.0000
  46 H           -1.4612     6.7179     0.1458 H            1    LIG   0.0000
  47 H            7.5687     1.9835     1.2171 H            1    LIG   0.0000
  48 H            9.4384     3.3969     0.7186 H            1    LIG   0.0000
  49 H            9.5277     4.5689    -1.3612 H            1    LIG   0.0000
  50 H            7.7589     4.3383    -2.9495 H            1    LIG   0.0000
  51 H            5.8843     2.9283    -2.4578 H            1    LIG   0.0000
  52 H            7.4789    -0.3661    -1.5569 H            1    LIG   0.0000
  53 H            9.4769    -1.6225    -1.1402 H            1    LIG   0.0000
@<TRIPOS>BOND
   1        1        2 ar
   2        2        3 ar
   3        3        4 ar
   4        4        5 1
   5        5        6 2
   6        6        7 1
   7        7        8 1
   8        8        9 2
   9        9       10 1
  10       10       11 2
  11       11       12 1
  12       12       13 1
  13       13       14 ar
  14       14       15 ar
  15       15       16 ar
  16       16       17 ar
  17       17       18 ar
  18       18       13 ar
  19       12       19 1
  20       19       20 1
  21       20       21 2
  22       21       22 1
  23       22       23 2
  24       23       19 1
  25       11       24 1
  26       24        8 1
  27        7       25 2
  28       25       26 1
  29       26        5 1
  30       26       27 1
  31       27       28 ar
  32       28       29 ar
  33       29       30 ar
  34       30       31 ar
  35       31       32 ar
  36       32       27 ar
  37        4       33 ar
  38       33       34 ar
  39       34        1 ar
  40       12       35 1
  41        1       36 1
  42        2       37 1
  43        3       38 1
  44       14       39 1
  45       15       40 1
  46       16       41 1
  47       17       42 1
  48       18       43 1
  49       20       44 1
  50       21       45 1
  51       22       46 1
  52       28       47 1
  53       29       48 1
  54       30       49 1
  55       31       50 1
  56       32       51 1
  57       33       52 1
  58       34       53 1

@<TRIPOS>MOLECULE

  53   58
SMALL
USER_CHARGES
@<TRIPOS>ATOM
   1 C1           9.0713    -1.9696     0.8699 C.ar         1    LIG   0.0000
   2 C2           8.1648    -1.7519     1.9030 C.ar         1    LIG   0.0000
   3 C3           7.0029    -1.0245     1.6676 C.ar         1    LIG   0.0000
   4 C4           6.7621    -0.5211     0.3934 C.ar         1    LIG   0.0000
   5 C5           5.5536     0.2392     0.1388 C.2          1    LIG   0.0000
   6 N6           4.3260    -0.1964     0.2875 N.2          1    LIG   0.0000
   7 C7           3.5058     0.8351    -0.0594 C.2          1    LIG   0.0000
   8 C8           2.0564     0.7932    -0.0407 C.2          1    LIG   0.0000
   9 N9           1.3285    -0.2980    -0.0563 N.2          1    LIG   0.0000
  10 N10          0.0672     0.0683    -0.0305 N.2          1    LIG   0.0000
  11 C11          0.0345     1.3787     0.0016 C.2          1    LIG   0.0000
  12 C12         -1.2244     2.2311     0.0383 C.3          1    LIG   0.0000
  13 C13         -0.9569     3.5598    -0.6503 C.ar         1    LIG   0.0000
  14 C14         -0.5729     3.5771    -1.9871 C.ar         1    LIG   0.0000
  15 C15         -0.3295     4.7972    -2.6090 C.ar         1    LIG   0.0000
  16 C16         -0.4711     5.9832    -1.8950 C.ar         1    LIG   0.0000
  17 C17         -0.8559     5.9565    -0.5585 C.ar         1    LIG   0.0000
  18 C18         -1.1006     4.7404     0.0714 C.ar         1    LIG   0.0000
  19 N19         -1.6121     2.4725     1.4354 N.pl3        1    LIG   0.0000
  20 C20         -0.9457     2.0059     2.5279 C.2          1    LIG   0.0000
  21 C21         -1.6301     2.4559     3.6174 C.2          1    LIG   0.0000
  22 C22         -2.7275     3.2053     3.1357 C.2          1    LIG   0.0000
  23 N23         -2.6550     3.1733     1.8252 N.2          1    LIG   0.0000
  24 O24          1.2649     1.8378    -0.0033 O.2          1    LIG   0.0000
  25 N25          4.2286     1.8717    -0.4116 N.2          1    LIG   0.0000
  26 N26          5.4891     1.5254    -0.2981 N.pl3        1    LIG   0.0000
  27 C27          6.5851     2.3489    -0.5831 C.ar         1    LIG   0.0000
  28 C28          7.6107     2.4765     0.3480 C.ar         1    LIG   0.0000
  29 C29          8.6953     3.2972     0.0569 C.ar         1    LIG   0.0000
  30 C30          8.7466     3.9796    -1.1547 C.ar         1    LIG   0.0000
  31 C31          7.7167     3.8459    -2.0801 C.ar         1    LIG   0.0000
  32 C32          6.6279     3.0276    -1.7966 C.ar         1    LIG   0.0000
  33 C33          7.6628    -0.7335    -0.6452 C.ar         1    LIG   0.0000
  34 C34          8.8223    -1.4627    -0.4013 C.ar         1    LIG   0.0000
  35 H           -1.9644     1.7533    -0.4351 H            1    LIG   0.0000
  36 H            9.9058    -2.4930     1.0422 H            1    LIG   0.0000
  37 H            8.3488    -2.1185     2.8150 H            1    LIG   0.0000
  38 H            6.3478    -0.8651     2.4062 H            1    LIG   0.0000
  39 H           -0.4729     2.7218    -2.4954 H            1    LIG   0.0000
  40 H           -0.0527     4.8221    -3.5696 H            1    LIG   0.0000
  41 H           -0.2955     6.8588    -2.3449 H            1    LIG   0.0000
  42 H           -0.9566     6.8118    -0.0502 H            1    LIG   0.0000
  43 H           -1.3767     4.7151     1.0322 H            1    LIG   0.0000
  44 H           -0.1183     1.4443     2.5301 H            1    LIG   0.0000
  45 H           -1.3995     2.2877     4.5759 H            1    LIG   0.0000
  46 H           -3.4226     3.6688     3.6852 H            1    LIG   0.0000
  47 H            7.5687     1.9835     1.2171 H            1    LIG   0.0000
  48 H            9.4384     3.3969     0.7186 H            1    LIG   0.0000
  49 H            9.5277     4.5689    -1.3612 H            1    LIG   0.0000
  50 H            7.7589     4.3383    -2.9495 H            1    LIG   0.0000
  51 H            5.8843     2.9283    -2.4578 H            1    LIG   0.0000
  52 H            7.4789    -0.3661    -1.5569 H            1    LIG   0.0000
  53 H            9.4769    -1.6225    -1.1402 H            1    LIG   0.0000
@<TRIPOS>BOND
   1        1        2 ar
   2        2        3 ar
   3        3        4 ar
   4        4        5 1
   5        5        6 2
   6        6        7 1
   7        7        8 1
   8        8        9 2
   9        9       10 1
  10       10       11 2
  11       11       12 1
  12       12       13 1
  13       13       14 ar
  14       14       15 ar
  15       15       16 ar
  16       16       17 ar
  17       17       18 ar
  18       18       13 ar
  19       12       19 1
  20       19       20 1
  21       20       21 2
  22       21       22 1
  23       22       23 2
  24       23       19 1
  25       11       24 1
  26       24        8 1
  27        7       25 2
  28       25       26 1
  29       26        5 1
  30       26       27 1
  31       27       28 ar
  32       28       29 ar
  33       29       30 ar
  34       30       31 ar
  35       31       32 ar
  36       32       27 ar
  37        4       33 ar
  38       33       34 ar
  39       34        1 ar
  40       12       35 1
  41        1       36 1
  42        2       37 1
  43        3       38 1
  44       14       39 1
  45       15       40 1
  46       16       41 1
  47       17       42 1
  48       18       43 1
  49       20       44 1
  50       21       45 1
  51       22       46 1
  52       28       47 1
  53       29       48 1
  54       30       49 1
  55       31       50 1
  56       32       51 1
  57       33       52 1
  58       34       53 1

@<TRIPOS>MOLECULE

  53   58
SMALL
USER_CHARGES
@<TRIPOS>ATOM
   1 C1           9.0713    -1.9696     0.8699 C.ar         1    LIG   0.0000
   2 C2           8.1648    -1.7519     1.9030 C.ar         1    LIG   0.0000
   3 C3           7.0029    -1.0245     1.6676 C.ar         1    LIG   0.0000
   4 C4           6.7621    -0.5211     0.3934 C.ar         1    LIG   0.0000
   5 C5           5.5536     0.2392     0.1388 C.2          1    LIG   0.0000
   6 N6           4.3260    -0.1964     0.2875 N.2          1    LIG   0.0000
   7 C7           3.5058     0.8351    -0.0594 C.2          1    LIG   0.0000
   8 C8           2.0564     0.7932    -0.0407 C.2          1    LIG   0.0000
   9 N9           1.3285    -0.2980    -0.0563 N.2          1    LIG   0.0000
  10 N10          0.0672     0.0683    -0.0305 N.2          1    LIG   0.0000
  11 C11          0.0345     1.3787     0.0016 C.2          1    LIG   0.0000
  12 C12         -1.2244     2.2311     0.0383 C.3          1    LIG   0.0000
  13 C13         -1.2259     3.0787     1.3004 C.ar         1    LIG   0.0000
  14 C14         -0.1943     3.9852     1.5217 C.ar         1    LIG   0.0000
  15 C15         -0.2031     4.7561     2.6794 C.ar         1    LIG   0.0000
  16 C16         -1.2363     4.6165     3.6011 C.ar         1    LIG   0.0000
  17 C17         -2.2641     3.7076     3.3714 C.ar         1    LIG   0.0000
  18 C18         -2.2625     2.9321     2.2163 C.ar         1    LIG   0.0000
  19 N19         -2.4073     1.3586     0.0327 N.pl3        1    LIG   0.0000
  20 C20         -3.7000     1.7869     0.0586 C.2          1    LIG   0.0000
  21 C21         -4.4770     0.6671     0.0395 C.2          1    LIG   0.0000
  22 C22         -3.6020    -0.4425     0.0028 C.2          1    LIG   0.0000
  23 N23         -2.3824     0.0436     0.0009 N.2          1    LIG   0.0000
  24 O24          1.2649     1.8378    -0.0033 O.2          1    LIG   0.0000
  25 N25          4.2286     1.8717    -0.4116 N.2          1    LIG   0.0000
  26 N26          5.4891     1.5254    -0.2981 N.pl3        1    LIG   0.0000
  27 C27          6.5851     2.3489    -0.5831 C.ar         1    LIG   0.0000
  28 C28          7.7775     2.1725     0.1113 C.ar         1    LIG   0.0000
  29 C29          8.8609     2.9956    -0.1777 C.ar         1    LIG   0.0000
  30 C30          8.7454     3.9820    -1.1524 C.ar         1    LIG   0.0000
  31 C31          7.5492     4.1512    -1.8421 C.ar         1    LIG   0.0000
  32 C32          6.4605     3.3326    -1.5587 C.ar         1    LIG   0.0000
  33 C33          7.6628    -0.7335    -0.6452 C.ar         1    LIG   0.0000
  34 C34          8.8223    -1.4627    -0.4013 C.ar         1    LIG   0.0000
  35 H           -1.2465     2.8277    -0.7639 H            1    LIG   0.0000
  36 H            9.9058    -2.4930     1.0422 H            1    LIG   0.0000
  37 H            8.3488    -2.1185     2.8150 H            1    LIG   0.0000
  38 H            6.3478    -0.8651     2.4062 H            1    LIG   0.0000
  39 H            0.5455     4.0815     0.8558 H            1    LIG   0.0000
  40 H            0.5332     5.4109     2.8494 H            1    LIG   0.0000
  41 H           -1.2400     5.1721     4.4324 H            1    LIG   0.0000
  42 H           -3.0043     3.6116     4.0369 H            1    LIG   0.0000
  43 H           -2.9984     2.2766     2.0464 H            1    LIG   0.0000
  44 H           -4.0164     2.7351     0.0861 H            1    LIG   0.0000
  45 H           -5.4764     0.6363     0.0495 H            1    LIG   0.0000
  46 H           -3.8610    -1.4081    -0.0177 H            1    LIG   0.0000
  47 H            7.8549     1.4619     0.8105 H            1    LIG   0.0000
  48 H            9.7231     2.8783     0.3150 H            1    LIG   0.0000
  49 H            9.5261     4.5722    -1.3580 H            1    LIG   0.0000
  50 H            7.4719     4.8613    -2.5418 H            1    LIG   0.0000
  51 H            5.5980     3.4502    -2.0508 H            1    LIG   0.0000
  52 H            7.4789    -0.3661    -1.5569 H            1    LIG   0.0000
  53 H            9.4769    -1.6225    -1.1402 H            1    LIG   0.0000
@<TRIPOS>BOND
   1        1        2 ar
   2        2        3 ar
   3        3        4 ar
   4        4        5 1
   5        5        6 2
   6        6        7 1
   7        7        8 1
   8        8        9 2
   9        9       10 1
  10       10       11 2
  11       11       12 1
  12       12       13 1
  13       13       14 ar
  14       14       15 ar
  15       15       16 ar
  16       16       17 ar
  17       17       18 ar
  18       18       13 ar
  19       12       19 1
  20       19       20 1
  21       20       21 2
  22       21       22 1
  23       22       23 2
  24       23       19 1
  25       11       24 1
  26       24        8 1
  27        7       25 2
  28       25       26 1
  29       26        5 1
  30       26       27 1
  31       27       28 ar
  32       28       29 ar
  33       29       30 ar
  34       30       31 ar
  35       31       32 ar
  36       32       27 ar
  37        4       33 ar
  38       33       34 ar
  39       34        1 ar
  40       12       35 1
  41        1       36 1
  42        2       37 1
  43        3       38 1
  44       14       39 1
  45       15       40 1
  46       16       41 1
  47       17       42 1
  48       18       43 1
  49       20       44 1
  50       21       45 1
  51       22       46 1
  52       28       47 1
  53       29       48 1
  54       30       49 1
  55       31       50 1
  56       32       51 1
  57       33       52 1
  58       34       53 1

@<TRIPOS>MOLECULE

  53   58
SMALL
USER_CHARGES
@<TRIPOS>ATOM
   1 C1           9.0703    -1.9656     0.8869 C.ar         1    LIG   0.0000
   2 C2           8.1612    -2.4167    -0.0653 C.ar         1    LIG   0.0000
   3 C3           7.0000    -1.6934    -0.3164 C.ar         1    LIG   0.0000
   4 C4           6.7621    -0.5211     0.3934 C.ar         1    LIG   0.0000
   5 C5           5.5536     0.2392     0.1388 C.2          1    LIG   0.0000
   6 N6           4.3260    -0.1964     0.2875 N.2          1    LIG   0.0000
   7 C7           3.5058     0.8351    -0.0594 C.2          1    LIG   0.0000
   8 C8           2.0564     0.7932    -0.0407 C.2          1    LIG   0.0000
   9 N9           1.3285    -0.2980    -0.0563 N.2          1    LIG   0.0000
  10 N10          0.0672     0.0683    -0.0305 N.2          1    LIG   0.0000
  11 C11          0.0345     1.3787     0.0016 C.2          1    LIG   0.0000
  12 C12         -1.2244     2.2311     0.0383 C.3          1    LIG   0.0000
  13 C13         -2.3309     1.4704     0.7513 C.ar         1    LIG   0.0000
  14 C14         -2.1512     1.0715     2.0717 C.ar         1    LIG   0.0000
  15 C15         -3.1684     0.3754     2.7162 C.ar         1    LIG   0.0000
  16 C16         -4.3500     0.0854     2.0408 C.ar         1    LIG   0.0000
  17 C17         -4.5212     0.4885     0.7205 C.ar         1    LIG   0.0000
  18 C18         -3.5084     1.1846     0.0682 C.ar         1    LIG   0.0000
  19 N19         -1.6479     2.5389    -1.3351 N.pl3        1    LIG   0.0000
  20 C20         -1.9842     1.6165    -2.2793 C.2          1    LIG   0.0000
  21 C21         -2.3151     2.3169    -3.4009 C.2          1    LIG   0.0000
  22 C22         -2.1629     3.6878    -3.0921 C.2          1    LIG   0.0000
  23 N23         -1.7623     3.7470    -1.8432 N.2          1    LIG   0.0000
  24 O24          1.2649     1.8378    -0.0033 O.2          1    LIG   0.0000
  25 N25          4.2286     1.8717    -0.4116 N.2          1    LIG   0.0000
  26 N26          5.4891     1.5254    -0.2981 N.pl3        1    LIG   0.0000
  27 C27          6.5851     2.3489    -0.5831 C.ar         1    LIG   0.0000
  28 C28          7.3773     2.0804    -1.6945 C.ar         1    LIG   0.0000
  29 C29          8.4644     2.9033    -1.9696 C.ar         1    LIG   0.0000
  30 C30          8.7498     3.9814    -1.1373 C.ar         1    LIG   0.0000
  31 C31          7.9521     4.2426    -0.0280 C.ar         1    LIG   0.0000
  32 C32          6.8631     3.4241     0.2546 C.ar         1    LIG   0.0000
  33 C33          7.6649    -0.0628     1.3473 C.ar         1    LIG   0.0000
  34 C34          8.8243    -0.7919     1.5919 C.ar         1    LIG   0.0000
  35 H           -1.0363     3.0825     0.5278 H            1    LIG   0.0000
  36 H            9.9043    -2.4877     1.0653 H            1    LIG   0.0000
  37 H            8.3430    -3.2611    -0.5691 H            1    LIG   0.0000
  38 H            6.3434    -2.0128    -0.9997 H            1    LIG   0.0000
  39 H           -1.3001     1.2828     2.5523 H            1    LIG   0.0000
  40 H           -3.0506     0.0832     3.6653 H            1    LIG   0.0000
  41 H           -5.0795    -0.4152     2.5068 H            1    LIG   0.0000
  42 H           -5.3725     0.2778     0.2399 H            1    LIG   0.0000
  43 H           -3.6257     1.4762    -0.8811 H            1    LIG   0.0000
  44 H           -1.9875     0.6224    -2.1711 H            1    LIG   0.0000
  45 H           -2.6097     1.9335    -4.2763 H            1    LIG   0.0000
  46 H           -2.3279     4.4609    -3.7046 H            1    LIG   0.0000
  47 H            7.1674     1.3044    -2.2893 H            1    LIG   0.0000
  48 H            9.0412     2.7200    -2.7656 H            1    LIG   0.0000
  49 H            9.5321     4.5712    -1.3376 H            1    LIG   0.0000
  50 H            8.1614     5.0190     0.5665 H            1    LIG   0.0000
  51 H            6.2867     3.6068     1.0511 H            1    LIG   0.0000
  52 H            7.4826     0.7813     1.8516 H            1    LIG   0.0000
  53 H            9.4812    -0.4720     2.2747 H            1    LIG   0.0000
@<TRIPOS>BOND
   1        1        2 ar
   2        2        3 ar
   3        3        4 ar
   4        4        5 1
   5        5        6 2
   6        6        7 1
   7        7        8 1
   8        8        9 2
   9        9       10 1
  10       10       11 2
  11       11       12 1
  12       12       13 1
  13       13       14 ar
  14       14       15 ar
  15       15       16 ar
  16       16       17 ar
  17       17       18 ar
  18       18       13 ar
  19       12       19 1
  20       19       20 1
  21       20       21 2
  22       21       22 1
  23       22       23 2
  24       23       19 1
  25       11       24 1
  26       24        8 1
  27        7       25 2
  28       25       26 1
  29       26        5 1
  30       26       27 1
  31       27       28 ar
  32       28       29 ar
  33       29       30 ar
  34       30       31 ar
  35       31       32 ar
  36       32       27 ar
  37        4       33 ar
  38       33       34 ar
  39       34        1 ar
  40       12       35 1
  41        1       36 1
  42        2       37 1
  43        3       38 1
  44       14       39 1
  45       15       40 1
  46       16       41 1
  47       17       42 1
  48       18       43 1
  49       20       44 1
  50       21       45 1
  51       22       46 1
  52       28       47 1
  53       29       48 1
  54       30       49 1
  55       31       50 1
  56       32       51 1
  57       33       52 1
  58       34       53 1

@<TRIPOS>MOLECULE

  53   58
SMALL
USER_CHARGES
@<TRIPOS>ATOM
   1 C1           9.0703    -1.9656     0.8869 C.ar         1    LIG   0.0000
   2 C2           8.1612    -2.4167    -0.0653 C.ar         1    LIG   0.0000
   3 C3           7.0000    -1.6934    -0.3164 C.ar         1    LIG   0.0000
   4 C4           6.7621    -0.5211     0.3934 C.ar         1    LIG   0.0000
   5 C5           5.5536     0.2392     0.1388 C.2          1    LIG   0.0000
   6 N6           4.3260    -0.1964     0.2875 N.2          1    LIG   0.0000
   7 C7           3.5058     0.8351    -0.0594 C.2          1    LIG   0.0000
   8 C8           2.0564     0.7932    -0.0407 C.2          1    LIG   0.0000
   9 N9           1.3285    -0.2980    -0.0563 N.2          1    LIG   0.0000
  10 N10          0.0672     0.0683    -0.0305 N.2          1    LIG   0.0000
  11 C11          0.0345     1.3787     0.0016 C.2          1    LIG   0.0000
  12 C12         -1.2244     2.2311     0.0383 C.3          1    LIG   0.0000
  13 C13         -0.9569     3.5598    -0.6503 C.ar         1    LIG   0.0000
  14 C14          0.3247     4.1000    -0.6293 C.ar         1    LIG   0.0000
  15 C15          0.5604     5.3165    -1.2612 C.ar         1    LIG   0.0000
  16 C16         -0.4798     5.9795    -1.9054 C.ar         1    LIG   0.0000
  17 C17         -1.7583     5.4318    -1.9216 C.ar         1    LIG   0.0000
  18 C18         -2.0028     4.2158    -1.2914 C.ar         1    LIG   0.0000
  19 N19         -1.6121     2.4725     1.4354 N.pl3        1    LIG   0.0000
  20 C20         -1.1963     3.5231     2.1961 C.2          1    LIG   0.0000
  21 C21         -1.7853     3.3719     3.4161 C.2          1    LIG   0.0000
  22 C22         -2.5648     2.1943     3.3556 C.2          1    LIG   0.0000
  23 N23         -2.4147     1.7090     2.1450 N.2          1    LIG   0.0000
  24 O24          1.2649     1.8378    -0.0033 O.2          1    LIG   0.0000
  25 N25          4.2286     1.8717    -0.4116 N.2          1    LIG   0.0000
  26 N26          5.4891     1.5254    -0.2981 N.pl3        1    LIG   0.0000
  27 C27          6.5851     2.3489    -0.5831 C.ar         1    LIG   0.0000
  28 C28          7.7733     1.7823    -1.0328 C.ar         1    LIG   0.0000
  29 C29          8.8572     2.6078    -1.3127 C.ar         1    LIG   0.0000
  30 C30          8.7462     3.9845    -1.1424 C.ar         1    LIG   0.0000
  31 C31          7.5540     4.5425    -0.6925 C.ar         1    LIG   0.0000
  32 C32          6.4652     3.7239    -0.4096 C.ar         1    LIG   0.0000
  33 C33          7.6649    -0.0628     1.3473 C.ar         1    LIG   0.0000
  34 C34          8.8243    -0.7919     1.5919 C.ar         1    LIG   0.0000
  35 H           -1.9644     1.7533    -0.4351 H            1    LIG   0.0000
  36 H            9.9043    -2.4877     1.0653 H            1    LIG   0.0000
  37 H            8.3430    -3.2611    -0.5691 H            1    LIG   0.0000
  38 H            6.3434    -2.0128    -0.9997 H            1    LIG   0.0000
  39 H            1.0685     3.6191    -0.1651 H            1    LIG   0.0000
  40 H            1.4776     5.7147    -1.2526 H            1    LIG   0.0000
  41 H           -0.3072     6.8539    -2.3589 H            1    LIG   0.0000
  42 H           -2.5021     5.9123    -2.3863 H            1    LIG   0.0000
  43 H           -2.9201     3.8177    -1.2992 H            1    LIG   0.0000
  44 H           -0.5809     4.2596     1.9152 H            1    LIG   0.0000
  45 H           -1.6849     3.9790     4.2044 H            1    LIG   0.0000
  46 H           -3.1213     1.8070     4.0906 H            1    LIG   0.0000
  47 H            7.8473     0.7924    -1.1535 H            1    LIG   0.0000
  48 H            9.7165     2.2119    -1.6363 H            1    LIG   0.0000
  49 H            9.5271     4.5754    -1.3445 H            1    LIG   0.0000
  50 H            7.4796     5.5325    -0.5724 H            1    LIG   0.0000
  51 H            5.6060     4.1195    -0.0852 H            1    LIG   0.0000
  52 H            7.4826     0.7813     1.8516 H            1    LIG   0.0000
  53 H            9.4812    -0.4720     2.2747 H            1    LIG   0.0000
@<TRIPOS>BOND
   1        1        2 ar
   2        2        3 ar
   3        3        4 ar
   4        4        5 1
   5        5        6 2
   6        6        7 1
   7        7        8 1
   8        8        9 2
   9        9       10 1
  10       10       11 2
  11       11       12 1
  12       12       13 1
  13       13       14 ar
  14       14       15 ar
  15       15       16 ar
  16       16       17 ar
  17       17       18 ar
  18       18       13 ar
  19       12       19 1
  20       19       20 1
  21       20       21 2
  22       21       22 1
  23       22       23 2
  24       23       19 1
  25       11       24 1
  26       24        8 1
  27        7       25 2
  28       25       26 1
  29       26        5 1
  30       26       27 1
  31       27       28 ar
  32       28       29 ar
  33       29       30 ar
  34       30       31 ar
  35       31       32 ar
  36       32       27 ar
  37        4       33 ar
  38       33       34 ar
  39       34        1 ar
  40       12       35 1
  41        1       36 1
  42        2       37 1
  43        3       38 1
  44       14       39 1
  45       15       40 1
  46       16       41 1
  47       17       42 1
  48       18       43 1
  49       20       44 1
  50       21       45 1
  51       22       46 1
  52       28       47 1
  53       29       48 1
  54       30       49 1
  55       31       50 1
  56       32       51 1
  57       33       52 1
  58       34       53 1

@<TRIPOS>MOLECULE

  53   58
SMALL
USER_CHARGES
@<TRIPOS>ATOM
   1 C1           9.0703    -1.9656     0.8869 C.ar         1    LIG   0.0000
   2 C2           8.1612    -2.4167    -0.0653 C.ar         1    LIG   0.0000
   3 C3           7.0000    -1.6934    -0.3164 C.ar         1    LIG   0.0000
   4 C4           6.7621    -0.5211     0.3934 C.ar         1    LIG   0.0000
   5 C5           5.5536     0.2392     0.1388 C.2          1    LIG   0.0000
   6 N6           4.3260    -0.1964     0.2875 N.2          1    LIG   0.0000
   7 C7           3.5058     0.8351    -0.0594 C.2          1    LIG   0.0000
   8 C8           2.0564     0.7932    -0.0407 C.2          1    LIG   0.0000
   9 N9           1.3285    -0.2980    -0.0563 N.2          1    LIG   0.0000
  10 N10          0.0672     0.0683    -0.0305 N.2          1    LIG   0.0000
  11 C11          0.0345     1.3787     0.0016 C.2          1    LIG   0.0000
  12 C12         -1.2244     2.2311     0.0383 C.3          1    LIG   0.0000
  13 C13         -1.2259     3.0787     1.3004 C.ar         1    LIG   0.0000
  14 C14         -0.5974     2.6057     2.4476 C.ar         1    LIG   0.0000
  15 C15         -0.6042     3.3874     3.5981 C.ar         1    LIG   0.0000
  16 C16         -1.2346     4.6280     3.5933 C.ar         1    LIG   0.0000
  17 C17         -1.8604     5.0932     2.4414 C.ar         1    LIG   0.0000
  18 C18         -1.8589     4.3173     1.2865 C.ar         1    LIG   0.0000
  19 N19         -2.4073     1.3586     0.0327 N.pl3        1    LIG   0.0000
  20 C20         -2.4612     0.1042     0.5608 C.2          1    LIG   0.0000
  21 C21         -3.7291    -0.3488     0.3482 C.2          1    LIG   0.0000
  22 C22         -4.4275     0.6788    -0.3258 C.2          1    LIG   0.0000
  23 N23         -3.5780     1.6676    -0.4816 N.2          1    LIG   0.0000
  24 O24          1.2649     1.8378    -0.0033 O.2          1    LIG   0.0000
  25 N25          4.2286     1.8717    -0.4116 N.2          1    LIG   0.0000
  26 N26          5.4891     1.5254    -0.2981 N.pl3        1    LIG   0.0000
  27 C27          6.5851     2.3489    -0.5831 C.ar         1    LIG   0.0000
  28 C28          7.8294     1.7779    -0.8297 C.ar         1    LIG   0.0000
  29 C29          8.9127     2.6036    -1.1112 C.ar         1    LIG   0.0000
  30 C30          8.7456     3.9847    -1.1441 C.ar         1    LIG   0.0000
  31 C31          7.4976     4.5471    -0.8965 C.ar         1    LIG   0.0000
  32 C32          6.4088     3.7284    -0.6135 C.ar         1    LIG   0.0000
  33 C33          7.6649    -0.0628     1.3473 C.ar         1    LIG   0.0000
  34 C34          8.8243    -0.7919     1.5919 C.ar         1    LIG   0.0000
  35 H           -1.2465     2.8277    -0.7639 H            1    LIG   0.0000
  36 H            9.9043    -2.4877     1.0653 H            1    LIG   0.0000
  37 H            8.3430    -3.2611    -0.5691 H            1    LIG   0.0000
  38 H            6.3434    -2.0128    -0.9997 H            1    LIG   0.0000
  39 H           -0.1457     1.7136     2.4453 H            1    LIG   0.0000
  40 H           -0.1558     3.0578     4.4290 H            1    LIG   0.0000
  41 H           -1.2378     5.1877     4.4220 H            1    LIG   0.0000
  42 H           -2.3116     5.9856     2.4433 H            1    LIG   0.0000
  43 H           -2.3078     4.6464     0.4558 H            1    LIG   0.0000
  44 H           -1.7177    -0.3871     1.0146 H            1    LIG   0.0000
  45 H           -4.0957    -1.2392     0.6180 H            1    LIG   0.0000
  46 H           -5.3814     0.6569    -0.6253 H            1    LIG   0.0000
  47 H            7.9437     0.7848    -0.8049 H            1    LIG   0.0000
  48 H            9.8121     2.2046    -1.2899 H            1    LIG   0.0000
  49 H            9.5263     4.5757    -1.3468 H            1    LIG   0.0000
  50 H            7.3830     5.5402    -0.9219 H            1    LIG   0.0000
  51 H            5.5096     4.1273    -0.4340 H            1    LIG   0.0000
  52 H            7.4826     0.7813     1.8516 H            1    LIG   0.0000
  53 H            9.4812    -0.4720     2.2747 H            1    LIG   0.0000
@<TRIPOS>BOND
   1        1        2 ar
   2        2        3 ar
   3        3        4 ar
   4        4        5 1
   5        5        6 2
   6        6        7 1
   7        7        8 1
   8        8        9 2
   9        9       10 1
  10       10       11 2
  11       11       12 1
  12       12       13 1
  13       13       14 ar
  14       14       15 ar
  15       15       16 ar
  16       16       17 ar
  17       17       18 ar
  18       18       13 ar
  19       12       19 1
  20       19       20 1
  21       20       21 2
  22       21       22 1
  23       22       23 2
  24       23       19 1
  25       11       24 1
  26       24        8 1
  27        7       25 2
  28       25       26 1
  29       26        5 1
  30       26       27 1
  31       27       28 ar
  32       28       29 ar
  33       29       30 ar
  34       30       31 ar
  35       31       32 ar
  36       32       27 ar
  37        4       33 ar
  38       33       34 ar
  39       34        1 ar
  40       12       35 1
  41        1       36 1
  42        2       37 1
  43        3       38 1
  44       14       39 1
  45       15       40 1
  46       16       41 1
  47       17       42 1
  48       18       43 1
  49       20       44 1
  50       21       45 1
  51       22       46 1
  52       28       47 1
  53       29       48 1
  54       30       49 1
  55       31       50 1
  56       32       51 1
  57       33       52 1
  58       34       53 1

