@<TRIPOS>MOLECULE
*****
 53 58 0 0 0
SMALL
USER_CHARGES

@<TRIPOS>ATOM
      1 C1          9.0713   -1.9696    0.8699 C.ar    1  LIG1        0.0000
      2 C2          8.1648   -1.7519    1.9030 C.ar    1  LIG1        0.0000
      3 C3          7.0029   -1.0245    1.6676 C.ar    1  LIG1        0.0000
      4 C4          6.7621   -0.5211    0.3934 C.ar    1  LIG1        0.0000
      5 C5          5.5536    0.2392    0.1388 C.2     1  LIG1        0.0000
      6 N6          4.3260   -0.1964    0.2875 N.2     1  LIG1        0.0000
      7 C7          3.5058    0.8351   -0.0594 C.2     1  LIG1        0.0000
      8 C8          2.0564    0.7932   -0.0407 C.2     1  LIG1        0.0000
      9 N9          1.3285   -0.2980   -0.0563 N.2     1  LIG1        0.0000
     10 N10         0.0672    0.0683   -0.0305 N.2     1  LIG1        0.0000
     11 C11         0.0345    1.3787    0.0016 C.2     1  LIG1        0.0000
     12 C12        -1.2244    2.2311    0.0383 C.3     1  LIG1        0.0000
     13 C13        -1.2259    3.0787    1.3004 C.ar    1  LIG1        0.0000
     14 C14        -0.1943    3.9852    1.5217 C.ar    1  LIG1        0.0000
     15 C15        -0.2031    4.7561    2.6794 C.ar    1  LIG1        0.0000
     16 C16        -1.2363    4.6165    3.6011 C.ar    1  LIG1        0.0000
     17 C17        -2.2641    3.7076    3.3714 C.ar    1  LIG1        0.0000
     18 C18        -2.2625    2.9321    2.2163 C.ar    1  LIG1        0.0000
     19 N19        -2.4073    1.3586    0.0327 N.pl3   1  LIG1        0.0000
     20 C20        -3.7000    1.7869    0.0586 C.2     1  LIG1        0.0000
     21 C21        -4.4770    0.6671    0.0395 C.2     1  LIG1        0.0000
     22 C22        -3.6020   -0.4425    0.0028 C.2     1  LIG1        0.0000
     23 N23        -2.3824    0.0436    0.0009 N.2     1  LIG1        0.0000
     24 O24         1.2649    1.8378   -0.0033 O.2     1  LIG1        0.0000
     25 N25         4.2286    1.8717   -0.4116 N.2     1  LIG1        0.0000
     26 N26         5.4891    1.5254   -0.2981 N.pl3   1  LIG1        0.0000
     27 C27         6.5851    2.3489   -0.5831 C.ar    1  LIG1        0.0000
     28 C28         7.7775    2.1725    0.1113 C.ar    1  LIG1        0.0000
     29 C29         8.8609    2.9956   -0.1777 C.ar    1  LIG1        0.0000
     30 C30         8.7454    3.9820   -1.1524 C.ar    1  LIG1        0.0000
     31 C31         7.5492    4.1512   -1.8421 C.ar    1  LIG1        0.0000
     32 C32         6.4605    3.3326   -1.5587 C.ar    1  LIG1        0.0000
     33 C33         7.6628   -0.7335   -0.6452 C.ar    1  LIG1        0.0000
     34 C34         8.8223   -1.4627   -0.4013 C.ar    1  LIG1        0.0000
     35 H          -1.2465    2.8277   -0.7639 H       1  LIG1        0.0000
     36 H           9.9058   -2.4930    1.0422 H       1  LIG1        0.0000
     37 H           8.3488   -2.1185    2.8150 H       1  LIG1        0.0000
     38 H           6.3478   -0.8651    2.4062 H       1  LIG1        0.0000
     39 H           0.5455    4.0815    0.8558 H       1  LIG1        0.0000
     40 H           0.5332    5.4109    2.8494 H       1  LIG1        0.0000
     41 H          -1.2400    5.1721    4.4324 H       1  LIG1        0.0000
     42 H          -3.0043    3.6116    4.0369 H       1  LIG1        0.0000
     43 H          -2.9984    2.2766    2.0464 H       1  LIG1        0.0000
     44 H          -4.0164    2.7351    0.0861 H       1  LIG1        0.0000
     45 H          -5.4764    0.6363    0.0495 H       1  LIG1        0.0000
     46 H          -3.8610   -1.4081   -0.0177 H       1  LIG1        0.0000
     47 H           7.8549    1.4619    0.8105 H       1  LIG1        0.0000
     48 H           9.7231    2.8783    0.3150 H       1  LIG1        0.0000
     49 H           9.5261    4.5722   -1.3580 H       1  LIG1        0.0000
     50 H           7.4719    4.8613   -2.5418 H       1  LIG1        0.0000
     51 H           5.5980    3.4502   -2.0508 H       1  LIG1        0.0000
     52 H           7.4789   -0.3661   -1.5569 H       1  LIG1        0.0000
     53 H           9.4769   -1.6225   -1.1402 H       1  LIG1        0.0000
@<TRIPOS>BOND
     1     1     2   ar
     2     2     3   ar
     3     3     4   ar
     4     4     5    1
     5     5     6    2
     6     6     7    1
     7     7     8    1
     8     8     9    2
     9     9    10    1
    10    10    11    2
    11    11    12    1
    12    12    13    1
    13    13    14   ar
    14    14    15   ar
    15    15    16   ar
    16    16    17   ar
    17    17    18   ar
    18    18    13   ar
    19    12    19    1
    20    19    20    1
    21    20    21    2
    22    21    22    1
    23    22    23    2
    24    23    19    1
    25    11    24    1
    26    24     8    1
    27     7    25    2
    28    25    26    1
    29    26     5    1
    30    26    27    1
    31    27    28   ar
    32    28    29   ar
    33    29    30   ar
    34    30    31   ar
    35    31    32   ar
    36    32    27   ar
    37     4    33   ar
    38    33    34   ar
    39    34     1   ar
    40    12    35    1
    41     1    36    1
    42     2    37    1
    43     3    38    1
    44    14    39    1
    45    15    40    1
    46    16    41    1
    47    17    42    1
    48    18    43    1
    49    20    44    1
    50    21    45    1
    51    22    46    1
    52    28    47    1
    53    29    48    1
    54    30    49    1
    55    31    50    1
    56    32    51    1
    57    33    52    1
    58    34    53    1
