@<TRIPOS>MOLECULE
*****
 53 58 0 0 0
SMALL
USER_CHARGES

@<TRIPOS>ATOM
      1 C1          9.0641   -2.1305   -0.2000 C.ar    1  LIG1        0.0000
      2 C2          7.9174   -2.6342    0.4064 C.ar    1  LIG1        0.0000
      3 C3          6.7560   -1.8696    0.4424 C.ar    1  LIG1        0.0000
      4 C4          6.7577   -0.6028   -0.1322 C.ar    1  LIG1        0.0000
      5 C5          5.5516    0.2019   -0.0987 C.2     1  LIG1        0.0000
      6 N6          4.3228   -0.2550   -0.0948 N.2     1  LIG1        0.0000
      7 C7          3.5058    0.8351   -0.0594 C.2     1  LIG1        0.0000
      8 C8          2.0564    0.7932   -0.0407 C.2     1  LIG1        0.0000
      9 N9          1.3285   -0.2980   -0.0563 N.2     1  LIG1        0.0000
     10 N10         0.0672    0.0683   -0.0305 N.2     1  LIG1        0.0000
     11 C11         0.0345    1.3787    0.0016 C.2     1  LIG1        0.0000
     12 C12        -1.2244    2.2311    0.0383 C.3     1  LIG1        0.0000
     13 C13        -2.3309    1.4704    0.7513 C.ar    1  LIG1        0.0000
     14 C14        -2.3582    0.0809    0.6938 C.ar    1  LIG1        0.0000
     15 C15        -3.3745   -0.6070    1.3485 C.ar    1  LIG1        0.0000
     16 C16        -4.3494    0.0944    2.0514 C.ar    1  LIG1        0.0000
     17 C17        -4.3141    1.4841    2.1038 C.ar    1  LIG1        0.0000
     18 C18        -3.3014    2.1799    1.4513 C.ar    1  LIG1        0.0000
     19 N19        -1.6479    2.5389   -1.3351 N.pl3   1  LIG1        0.0000
     20 C20        -1.7646    3.7904   -1.8598 C.2     1  LIG1        0.0000
     21 C21        -2.1771    3.6304   -3.1491 C.2     1  LIG1        0.0000
     22 C22        -2.3032    2.2404   -3.3732 C.2     1  LIG1        0.0000
     23 N23        -1.9719    1.6494   -2.2486 N.2     1  LIG1        0.0000
     24 O24         1.2649    1.8378   -0.0033 O.2     1  LIG1        0.0000
     25 N25         4.2318    1.9277   -0.0437 N.2     1  LIG1        0.0000
     26 N26         5.4910    1.5602   -0.0689 N.pl3   1  LIG1        0.0000
     27 C27         6.5895    2.4285   -0.0668 C.ar    1  LIG1        0.0000
     28 C28         6.5444    3.5973   -0.8198 C.ar    1  LIG1        0.0000
     29 C29         7.6404    4.4537   -0.8124 C.ar    1  LIG1        0.0000
     30 C30         8.7658    4.1378   -0.0573 C.ar    1  LIG1        0.0000
     31 C31         8.8020    2.9670    0.6930 C.ar    1  LIG1        0.0000
     32 C32         7.7103    2.1046    0.6907 C.ar    1  LIG1        0.0000
     33 C33         7.8994   -0.0910   -0.7401 C.ar    1  LIG1        0.0000
     34 C34         9.0566   -0.8626   -0.7724 C.ar    1  LIG1        0.0000
     35 H          -1.0363    3.0825    0.5278 H       1  LIG1        0.0000
     36 H           9.8975   -2.6825   -0.2244 H       1  LIG1        0.0000
     37 H           7.9282   -3.5462    0.8164 H       1  LIG1        0.0000
     38 H           5.9290   -2.2266    0.8767 H       1  LIG1        0.0000
     39 H          -1.6549   -0.4180    0.1874 H       1  LIG1        0.0000
     40 H          -3.4046   -1.6059    1.3140 H       1  LIG1        0.0000
     41 H          -5.0788   -0.4029    2.5211 H       1  LIG1        0.0000
     42 H          -5.0169    1.9831    2.6108 H       1  LIG1        0.0000
     43 H          -3.2715    3.1788    1.4850 H       1  LIG1        0.0000
     44 H          -1.5835    4.6554   -1.3918 H       1  LIG1        0.0000
     45 H          -2.3565    4.3582   -3.8110 H       1  LIG1        0.0000
     46 H          -2.5886    1.7948   -4.2217 H       1  LIG1        0.0000
     47 H           5.7330    3.8193   -1.3604 H       1  LIG1        0.0000
     48 H           7.6196    5.2966   -1.3500 H       1  LIG1        0.0000
     49 H           9.5522    4.7555   -0.0540 H       1  LIG1        0.0000
     50 H           9.6131    2.7452    1.2342 H       1  LIG1        0.0000
     51 H           7.7312    1.2612    1.2276 H       1  LIG1        0.0000
     52 H           7.8885    0.8213   -1.1494 H       1  LIG1        0.0000
     53 H           9.8834   -0.5057   -1.2073 H       1  LIG1        0.0000
@<TRIPOS>BOND
     1     1     2   ar
     2     2     3   ar
     3     3     4   ar
     4     4     5    1
     5     5     6    2
     6     6     7    1
     7     7     8    1
     8     8     9    2
     9     9    10    1
    10    10    11    2
    11    11    12    1
    12    12    13    1
    13    13    14   ar
    14    14    15   ar
    15    15    16   ar
    16    16    17   ar
    17    17    18   ar
    18    18    13   ar
    19    12    19    1
    20    19    20    1
    21    20    21    2
    22    21    22    1
    23    22    23    2
    24    23    19    1
    25    11    24    1
    26    24     8    1
    27     7    25    2
    28    25    26    1
    29    26     5    1
    30    26    27    1
    31    27    28   ar
    32    28    29   ar
    33    29    30   ar
    34    30    31   ar
    35    31    32   ar
    36    32    27   ar
    37     4    33   ar
    38    33    34   ar
    39    34     1   ar
    40    12    35    1
    41     1    36    1
    42     2    37    1
    43     3    38    1
    44    14    39    1
    45    15    40    1
    46    16    41    1
    47    17    42    1
    48    18    43    1
    49    20    44    1
    50    21    45    1
    51    22    46    1
    52    28    47    1
    53    29    48    1
    54    30    49    1
    55    31    50    1
    56    32    51    1
    57    33    52    1
    58    34    53    1
