@<TRIPOS>MOLECULE
*****
 53 58 0 0 0
SMALL
USER_CHARGES

@<TRIPOS>ATOM
      1 C1          9.0703   -1.9656    0.8869 C.ar    1  LIG1        0.0000
      2 C2          8.1612   -2.4167   -0.0653 C.ar    1  LIG1        0.0000
      3 C3          7.0000   -1.6934   -0.3164 C.ar    1  LIG1        0.0000
      4 C4          6.7621   -0.5211    0.3934 C.ar    1  LIG1        0.0000
      5 C5          5.5536    0.2392    0.1388 C.2     1  LIG1        0.0000
      6 N6          4.3260   -0.1964    0.2875 N.2     1  LIG1        0.0000
      7 C7          3.5058    0.8351   -0.0594 C.2     1  LIG1        0.0000
      8 C8          2.0564    0.7932   -0.0407 C.2     1  LIG1        0.0000
      9 N9          1.3285   -0.2980   -0.0563 N.2     1  LIG1        0.0000
     10 N10         0.0672    0.0683   -0.0305 N.2     1  LIG1        0.0000
     11 C11         0.0345    1.3787    0.0016 C.2     1  LIG1        0.0000
     12 C12        -1.2244    2.2311    0.0383 C.3     1  LIG1        0.0000
     13 C13        -1.2259    3.0787    1.3004 C.ar    1  LIG1        0.0000
     14 C14        -0.5974    2.6057    2.4476 C.ar    1  LIG1        0.0000
     15 C15        -0.6042    3.3874    3.5981 C.ar    1  LIG1        0.0000
     16 C16        -1.2346    4.6280    3.5933 C.ar    1  LIG1        0.0000
     17 C17        -1.8604    5.0932    2.4414 C.ar    1  LIG1        0.0000
     18 C18        -1.8589    4.3173    1.2865 C.ar    1  LIG1        0.0000
     19 N19        -2.4073    1.3586    0.0327 N.pl3   1  LIG1        0.0000
     20 C20        -2.4612    0.1042    0.5608 C.2     1  LIG1        0.0000
     21 C21        -3.7291   -0.3488    0.3482 C.2     1  LIG1        0.0000
     22 C22        -4.4275    0.6788   -0.3258 C.2     1  LIG1        0.0000
     23 N23        -3.5780    1.6676   -0.4816 N.2     1  LIG1        0.0000
     24 O24         1.2649    1.8378   -0.0033 O.2     1  LIG1        0.0000
     25 N25         4.2286    1.8717   -0.4116 N.2     1  LIG1        0.0000
     26 N26         5.4891    1.5254   -0.2981 N.pl3   1  LIG1        0.0000
     27 C27         6.5851    2.3489   -0.5831 C.ar    1  LIG1        0.0000
     28 C28         7.8294    1.7779   -0.8297 C.ar    1  LIG1        0.0000
     29 C29         8.9127    2.6036   -1.1112 C.ar    1  LIG1        0.0000
     30 C30         8.7456    3.9847   -1.1441 C.ar    1  LIG1        0.0000
     31 C31         7.4976    4.5471   -0.8965 C.ar    1  LIG1        0.0000
     32 C32         6.4088    3.7284   -0.6135 C.ar    1  LIG1        0.0000
     33 C33         7.6649   -0.0628    1.3473 C.ar    1  LIG1        0.0000
     34 C34         8.8243   -0.7919    1.5919 C.ar    1  LIG1        0.0000
     35 H          -1.2465    2.8277   -0.7639 H       1  LIG1        0.0000
     36 H           9.9043   -2.4877    1.0653 H       1  LIG1        0.0000
     37 H           8.3430   -3.2611   -0.5691 H       1  LIG1        0.0000
     38 H           6.3434   -2.0128   -0.9997 H       1  LIG1        0.0000
     39 H          -0.1457    1.7136    2.4453 H       1  LIG1        0.0000
     40 H          -0.1558    3.0578    4.4290 H       1  LIG1        0.0000
     41 H          -1.2378    5.1877    4.4220 H       1  LIG1        0.0000
     42 H          -2.3116    5.9856    2.4433 H       1  LIG1        0.0000
     43 H          -2.3078    4.6464    0.4558 H       1  LIG1        0.0000
     44 H          -1.7177   -0.3871    1.0146 H       1  LIG1        0.0000
     45 H          -4.0957   -1.2392    0.6180 H       1  LIG1        0.0000
     46 H          -5.3814    0.6569   -0.6253 H       1  LIG1        0.0000
     47 H           7.9437    0.7848   -0.8049 H       1  LIG1        0.0000
     48 H           9.8121    2.2046   -1.2899 H       1  LIG1        0.0000
     49 H           9.5263    4.5757   -1.3468 H       1  LIG1        0.0000
     50 H           7.3830    5.5402   -0.9219 H       1  LIG1        0.0000
     51 H           5.5096    4.1273   -0.4340 H       1  LIG1        0.0000
     52 H           7.4826    0.7813    1.8516 H       1  LIG1        0.0000
     53 H           9.4812   -0.4720    2.2747 H       1  LIG1        0.0000
@<TRIPOS>BOND
     1     1     2   ar
     2     2     3   ar
     3     3     4   ar
     4     4     5    1
     5     5     6    2
     6     6     7    1
     7     7     8    1
     8     8     9    2
     9     9    10    1
    10    10    11    2
    11    11    12    1
    12    12    13    1
    13    13    14   ar
    14    14    15   ar
    15    15    16   ar
    16    16    17   ar
    17    17    18   ar
    18    18    13   ar
    19    12    19    1
    20    19    20    1
    21    20    21    2
    22    21    22    1
    23    22    23    2
    24    23    19    1
    25    11    24    1
    26    24     8    1
    27     7    25    2
    28    25    26    1
    29    26     5    1
    30    26    27    1
    31    27    28   ar
    32    28    29   ar
    33    29    30   ar
    34    30    31   ar
    35    31    32   ar
    36    32    27   ar
    37     4    33   ar
    38    33    34   ar
    39    34     1   ar
    40    12    35    1
    41     1    36    1
    42     2    37    1
    43     3    38    1
    44    14    39    1
    45    15    40    1
    46    16    41    1
    47    17    42    1
    48    18    43    1
    49    20    44    1
    50    21    45    1
    51    22    46    1
    52    28    47    1
    53    29    48    1
    54    30    49    1
    55    31    50    1
    56    32    51    1
    57    33    52    1
    58    34    53    1
