@<TRIPOS>MOLECULE
*****
 53 58 0 0 0
SMALL
USER_CHARGES

@<TRIPOS>ATOM
      1 C1          9.0448   -1.9197   -1.2595 C.ar    1  LIG1        0.0000
      2 C2          7.7972   -2.5027   -1.4598 C.ar    1  LIG1        0.0000
      3 C3          6.6404   -1.7924   -1.1568 C.ar    1  LIG1        0.0000
      4 C4          6.7480   -0.4999   -0.6540 C.ar    1  LIG1        0.0000
      5 C5          5.5472    0.2480   -0.3345 C.2     1  LIG1        0.0000
      6 N6          4.3157   -0.1794   -0.4740 N.2     1  LIG1        0.0000
      7 C7          3.5058    0.8351   -0.0594 C.2     1  LIG1        0.0000
      8 C8          2.0564    0.7932   -0.0407 C.2     1  LIG1        0.0000
      9 N9          1.3285   -0.2980   -0.0563 N.2     1  LIG1        0.0000
     10 N10         0.0672    0.0683   -0.0305 N.2     1  LIG1        0.0000
     11 C11         0.0345    1.3787    0.0016 C.2     1  LIG1        0.0000
     12 C12        -1.2244    2.2311    0.0383 C.3     1  LIG1        0.0000
     13 C13        -1.2259    3.0787    1.3004 C.ar    1  LIG1        0.0000
     14 C14        -0.1943    3.9852    1.5217 C.ar    1  LIG1        0.0000
     15 C15        -0.2031    4.7561    2.6794 C.ar    1  LIG1        0.0000
     16 C16        -1.2363    4.6165    3.6011 C.ar    1  LIG1        0.0000
     17 C17        -2.2641    3.7076    3.3714 C.ar    1  LIG1        0.0000
     18 C18        -2.2625    2.9321    2.2163 C.ar    1  LIG1        0.0000
     19 N19        -2.4073    1.3586    0.0327 N.pl3   1  LIG1        0.0000
     20 C20        -2.3796   -0.0028    0.0009 C.2     1  LIG1        0.0000
     21 C21        -3.6789   -0.4146    0.0102 C.2     1  LIG1        0.0000
     22 C22        -4.4809    0.7488    0.0473 C.2     1  LIG1        0.0000
     23 N23        -3.6564    1.7704    0.0588 N.2     1  LIG1        0.0000
     24 O24         1.2649    1.8378   -0.0033 O.2     1  LIG1        0.0000
     25 N25         4.2386    1.8546    0.3211 N.2     1  LIG1        0.0000
     26 N26         5.4953    1.5145    0.1584 N.pl3   1  LIG1        0.0000
     27 C27         6.5990    2.3269    0.4454 C.ar    1  LIG1        0.0000
     28 C28         6.8829    2.6611    1.7655 C.ar    1  LIG1        0.0000
     29 C29         7.9809    3.4692    2.0414 C.ar    1  LIG1        0.0000
     30 C30         8.7819    3.9339    1.0026 C.ar    1  LIG1        0.0000
     31 C31         8.4907    3.5945   -0.3145 C.ar    1  LIG1        0.0000
     32 C32         7.3939    2.7872   -0.5992 C.ar    1  LIG1        0.0000
     33 C33         7.9908    0.0907   -0.4502 C.ar    1  LIG1        0.0000
     34 C34         9.1430   -0.6265   -0.7564 C.ar    1  LIG1        0.0000
     35 H          -1.2465    2.8277   -0.7639 H       1  LIG1        0.0000
     36 H           9.8748   -2.4329   -1.4782 H       1  LIG1        0.0000
     37 H           7.7324   -3.4327   -1.8216 H       1  LIG1        0.0000
     38 H           5.7412   -2.2063   -1.2990 H       1  LIG1        0.0000
     39 H           0.5455    4.0815    0.8558 H       1  LIG1        0.0000
     40 H           0.5332    5.4109    2.8494 H       1  LIG1        0.0000
     41 H          -1.2400    5.1721    4.4324 H       1  LIG1        0.0000
     42 H          -3.0043    3.6116    4.0369 H       1  LIG1        0.0000
     43 H          -2.9984    2.2766    2.0464 H       1  LIG1        0.0000
     44 H          -1.5669   -0.5850   -0.0243 H       1  LIG1        0.0000
     45 H          -4.0033   -1.3604   -0.0061 H       1  LIG1        0.0000
     46 H          -5.4801    0.7863    0.0618 H       1  LIG1        0.0000
     47 H           6.3040    2.3241    2.5080 H       1  LIG1        0.0000
     48 H           8.1947    3.7163    2.9864 H       1  LIG1        0.0000
     49 H           9.5706    4.5147    1.2041 H       1  LIG1        0.0000
     50 H           9.0699    3.9308   -1.0571 H       1  LIG1        0.0000
     51 H           7.1794    2.5406   -1.5443 H       1  LIG1        0.0000
     52 H           8.0555    1.0204   -0.0876 H       1  LIG1        0.0000
     53 H          10.0421   -0.2122   -0.6148 H       1  LIG1        0.0000
@<TRIPOS>BOND
     1     1     2   ar
     2     2     3   ar
     3     3     4   ar
     4     4     5    1
     5     5     6    2
     6     6     7    1
     7     7     8    1
     8     8     9    2
     9     9    10    1
    10    10    11    2
    11    11    12    1
    12    12    13    1
    13    13    14   ar
    14    14    15   ar
    15    15    16   ar
    16    16    17   ar
    17    17    18   ar
    18    18    13   ar
    19    12    19    1
    20    19    20    1
    21    20    21    2
    22    21    22    1
    23    22    23    2
    24    23    19    1
    25    11    24    1
    26    24     8    1
    27     7    25    2
    28    25    26    1
    29    26     5    1
    30    26    27    1
    31    27    28   ar
    32    28    29   ar
    33    29    30   ar
    34    30    31   ar
    35    31    32   ar
    36    32    27   ar
    37     4    33   ar
    38    33    34   ar
    39    34     1   ar
    40    12    35    1
    41     1    36    1
    42     2    37    1
    43     3    38    1
    44    14    39    1
    45    15    40    1
    46    16    41    1
    47    17    42    1
    48    18    43    1
    49    20    44    1
    50    21    45    1
    51    22    46    1
    52    28    47    1
    53    29    48    1
    54    30    49    1
    55    31    50    1
    56    32    51    1
    57    33    52    1
    58    34    53    1
