@<TRIPOS>MOLECULE
*****
 53 58 0 0 0
SMALL
USER_CHARGES

@<TRIPOS>ATOM
      1 C1          9.0713   -1.9696    0.8699 C.ar    1  LIG1        0.0000
      2 C2          8.1648   -1.7519    1.9030 C.ar    1  LIG1        0.0000
      3 C3          7.0029   -1.0245    1.6676 C.ar    1  LIG1        0.0000
      4 C4          6.7621   -0.5211    0.3934 C.ar    1  LIG1        0.0000
      5 C5          5.5536    0.2392    0.1388 C.2     1  LIG1        0.0000
      6 N6          4.3260   -0.1964    0.2875 N.2     1  LIG1        0.0000
      7 C7          3.5058    0.8351   -0.0594 C.2     1  LIG1        0.0000
      8 C8          2.0564    0.7932   -0.0407 C.2     1  LIG1        0.0000
      9 N9          1.3285   -0.2980   -0.0563 N.2     1  LIG1        0.0000
     10 N10         0.0672    0.0683   -0.0305 N.2     1  LIG1        0.0000
     11 C11         0.0345    1.3787    0.0016 C.2     1  LIG1        0.0000
     12 C12        -1.2244    2.2311    0.0383 C.3     1  LIG1        0.0000
     13 C13        -0.9569    3.5598   -0.6503 C.ar    1  LIG1        0.0000
     14 C14        -0.5729    3.5771   -1.9871 C.ar    1  LIG1        0.0000
     15 C15        -0.3295    4.7972   -2.6090 C.ar    1  LIG1        0.0000
     16 C16        -0.4711    5.9832   -1.8950 C.ar    1  LIG1        0.0000
     17 C17        -0.8559    5.9565   -0.5585 C.ar    1  LIG1        0.0000
     18 C18        -1.1006    4.7404    0.0714 C.ar    1  LIG1        0.0000
     19 N19        -1.6121    2.4725    1.4354 N.pl3   1  LIG1        0.0000
     20 C20        -0.9457    2.0059    2.5279 C.2     1  LIG1        0.0000
     21 C21        -1.6301    2.4559    3.6174 C.2     1  LIG1        0.0000
     22 C22        -2.7275    3.2053    3.1357 C.2     1  LIG1        0.0000
     23 N23        -2.6550    3.1733    1.8252 N.2     1  LIG1        0.0000
     24 O24         1.2649    1.8378   -0.0033 O.2     1  LIG1        0.0000
     25 N25         4.2286    1.8717   -0.4116 N.2     1  LIG1        0.0000
     26 N26         5.4891    1.5254   -0.2981 N.pl3   1  LIG1        0.0000
     27 C27         6.5851    2.3489   -0.5831 C.ar    1  LIG1        0.0000
     28 C28         7.6107    2.4765    0.3480 C.ar    1  LIG1        0.0000
     29 C29         8.6953    3.2972    0.0569 C.ar    1  LIG1        0.0000
     30 C30         8.7466    3.9796   -1.1547 C.ar    1  LIG1        0.0000
     31 C31         7.7167    3.8459   -2.0801 C.ar    1  LIG1        0.0000
     32 C32         6.6279    3.0276   -1.7966 C.ar    1  LIG1        0.0000
     33 C33         7.6628   -0.7335   -0.6452 C.ar    1  LIG1        0.0000
     34 C34         8.8223   -1.4627   -0.4013 C.ar    1  LIG1        0.0000
     35 H          -1.9644    1.7533   -0.4351 H       1  LIG1        0.0000
     36 H           9.9058   -2.4930    1.0422 H       1  LIG1        0.0000
     37 H           8.3488   -2.1185    2.8150 H       1  LIG1        0.0000
     38 H           6.3478   -0.8651    2.4062 H       1  LIG1        0.0000
     39 H          -0.4729    2.7218   -2.4954 H       1  LIG1        0.0000
     40 H          -0.0527    4.8221   -3.5696 H       1  LIG1        0.0000
     41 H          -0.2955    6.8588   -2.3449 H       1  LIG1        0.0000
     42 H          -0.9566    6.8118   -0.0502 H       1  LIG1        0.0000
     43 H          -1.3767    4.7151    1.0322 H       1  LIG1        0.0000
     44 H          -0.1183    1.4443    2.5301 H       1  LIG1        0.0000
     45 H          -1.3995    2.2877    4.5759 H       1  LIG1        0.0000
     46 H          -3.4226    3.6688    3.6852 H       1  LIG1        0.0000
     47 H           7.5687    1.9835    1.2171 H       1  LIG1        0.0000
     48 H           9.4384    3.3969    0.7186 H       1  LIG1        0.0000
     49 H           9.5277    4.5689   -1.3612 H       1  LIG1        0.0000
     50 H           7.7589    4.3383   -2.9495 H       1  LIG1        0.0000
     51 H           5.8843    2.9283   -2.4578 H       1  LIG1        0.0000
     52 H           7.4789   -0.3661   -1.5569 H       1  LIG1        0.0000
     53 H           9.4769   -1.6225   -1.1402 H       1  LIG1        0.0000
@<TRIPOS>BOND
     1     1     2   ar
     2     2     3   ar
     3     3     4   ar
     4     4     5    1
     5     5     6    2
     6     6     7    1
     7     7     8    1
     8     8     9    2
     9     9    10    1
    10    10    11    2
    11    11    12    1
    12    12    13    1
    13    13    14   ar
    14    14    15   ar
    15    15    16   ar
    16    16    17   ar
    17    17    18   ar
    18    18    13   ar
    19    12    19    1
    20    19    20    1
    21    20    21    2
    22    21    22    1
    23    22    23    2
    24    23    19    1
    25    11    24    1
    26    24     8    1
    27     7    25    2
    28    25    26    1
    29    26     5    1
    30    26    27    1
    31    27    28   ar
    32    28    29   ar
    33    29    30   ar
    34    30    31   ar
    35    31    32   ar
    36    32    27   ar
    37     4    33   ar
    38    33    34   ar
    39    34     1   ar
    40    12    35    1
    41     1    36    1
    42     2    37    1
    43     3    38    1
    44    14    39    1
    45    15    40    1
    46    16    41    1
    47    17    42    1
    48    18    43    1
    49    20    44    1
    50    21    45    1
    51    22    46    1
    52    28    47    1
    53    29    48    1
    54    30    49    1
    55    31    50    1
    56    32    51    1
    57    33    52    1
    58    34    53    1
