@<TRIPOS>MOLECULE

  60   64
SMALL
USER_CHARGES
@<TRIPOS>ATOM
   1 C1           3.2876    -7.3552    -0.3659 C.3          1    LIG   0.0000
   2 C2           2.5099    -6.0874    -0.0513 C.ar         1    LIG   0.0000
   3 C3           2.0010    -5.3400    -1.1079 C.ar         1    LIG   0.0000
   4 C4           1.2832    -4.1733    -0.8667 C.ar         1    LIG   0.0000
   5 C5           1.0822    -3.7657     0.4478 C.ar         1    LIG   0.0000
   6 N6           0.3600    -2.5924     0.6953 N.am         1    LIG   0.0000
   7 C7           1.0562    -1.3826     0.7665 C.2          1    LIG   0.0000
   8 O8           2.2690    -1.3392     0.6287 O.2          1    LIG   0.0000
   9 C9           0.3371    -0.1482     1.0000 C.2          1    LIG   0.0000
  10 C10          1.0000     1.0000     1.0000 C.2          1    LIG   0.0000
  11 N11          2.3700     1.0000     1.0000 N.pl3        1    LIG   0.0000
  12 C12          3.1050     2.2731     1.0000 C.3          1    LIG   0.0000
  13 C13          3.3583     2.7118    -0.4331 C.2          1    LIG   0.0000
  14 O14          2.9684     2.0365    -1.3452 O.2          1    LIG   0.0000
  15 N15          4.0318     3.8783    -0.6834 N.am         1    LIG   0.0000
  16 C16          4.2653     4.2827    -2.0042 C.ar         1    LIG   0.0000
  17 C17          3.5393     3.6600    -3.0134 C.ar         1    LIG   0.0000
  18 C18          3.7251     4.0154    -4.3451 C.ar         1    LIG   0.0000
  19 C19          4.6499     5.0054    -4.6601 C.ar         1    LIG   0.0000
  20 C20          5.3746     5.6271    -3.6481 C.ar         1    LIG   0.0000
  21 C21          6.2975     6.6155    -3.9733 C.ar         1    LIG   0.0000
  22 C22          7.0230     7.2363    -2.9621 C.ar         1    LIG   0.0000
  23 C23          6.8074     6.8515    -1.6431 C.ar         1    LIG   0.0000
  24 N24          5.9109     5.8947    -1.3619 N.ar         1    LIG   0.0000
  25 C25          5.1922     5.2750    -2.3124 C.ar         1    LIG   0.0000
  26 C26         -1.1044    -0.2154     1.1980 C.ar         1    LIG   0.0000
  27 C27         -1.8002     0.9622     1.4543 C.ar         1    LIG   0.0000
  28 C28         -3.1752     0.9207     1.6389 C.ar         1    LIG   0.0000
  29 C29         -3.8565    -0.2891     1.5674 C.ar         1    LIG   0.0000
  30 C30         -3.1580    -1.4635     1.3138 C.ar         1    LIG   0.0000
  31 C31         -1.7794    -1.4355     1.1336 C.ar         1    LIG   0.0000
  32 C32         -1.0314    -2.6488     0.8608 C.2          1    LIG   0.0000
  33 O33         -1.5758    -3.7399     0.7711 O.2          1    LIG   0.0000
  34 C34          1.5863    -4.5042     1.5138 C.ar         1    LIG   0.0000
  35 C35          2.3026    -5.6693     1.2602 C.ar         1    LIG   0.0000
  36 C36          2.8449    -6.4623     2.4386 C.3          1    LIG   0.0000
  37 H            3.3277    -7.4844    -1.3568 H            1    LIG   0.0000
  38 H            4.2157    -7.2758    -0.0023 H            1    LIG   0.0000
  39 H            2.8309    -8.1393     0.0542 H            1    LIG   0.0000
  40 H            2.1524    -5.6438    -2.0485 H            1    LIG   0.0000
  41 H            0.9173    -3.6359    -1.6266 H            1    LIG   0.0000
  42 H            0.5000     1.8660     1.0000 H            1    LIG   0.0000
  43 H            2.8700     0.1340     1.0000 H            1    LIG   0.0000
  44 H            3.9788     2.1535     1.4714 H            1    LIG   0.0000
  45 H            2.5646     2.9700     1.4714 H            1    LIG   0.0000
  46 H            4.3567     4.4411     0.0767 H            1    LIG   0.0000
  47 H            2.8764     2.9489    -2.7792 H            1    LIG   0.0000
  48 H            3.2003     3.5648    -5.0672 H            1    LIG   0.0000
  49 H            4.7938     5.2702    -5.6136 H            1    LIG   0.0000
  50 H            6.4385     6.8780    -4.9279 H            1    LIG   0.0000
  51 H            7.6898     7.9490    -3.1802 H            1    LIG   0.0000
  52 H            7.3209     7.2882    -0.9044 H            1    LIG   0.0000
  53 H           -1.3123     1.8335     1.5053 H            1    LIG   0.0000
  54 H           -3.6782     1.7649     1.8241 H            1    LIG   0.0000
  55 H           -4.8476    -0.3142     1.6982 H            1    LIG   0.0000
  56 H           -3.6492    -2.3330     1.2607 H            1    LIG   0.0000
  57 H            1.4348    -4.2000     2.4543 H            1    LIG   0.0000
  58 H            2.5945    -6.0047     3.2918 H            1    LIG   0.0000
  59 H            2.4560    -7.3835     2.4278 H            1    LIG   0.0000
  60 H            3.8410    -6.5201     2.3714 H            1    LIG   0.0000
@<TRIPOS>BOND
   1        1        2 1
   2        2        3 ar
   3        3        4 ar
   4        4        5 ar
   5        5        6 1
   6        6        7 am
   7        7        8 2
   8        7        9 1
   9        9       10 2
  10       10       11 1
  11       11       12 1
  12       12       13 1
  13       13       14 2
  14       13       15 am
  15       15       16 1
  16       16       17 ar
  17       17       18 ar
  18       18       19 ar
  19       19       20 ar
  20       20       21 ar
  21       21       22 ar
  22       22       23 ar
  23       23       24 ar
  24       24       25 ar
  25       25       16 ar
  26       25       20 ar
  27        9       26 1
  28       26       27 ar
  29       27       28 ar
  30       28       29 ar
  31       29       30 ar
  32       30       31 ar
  33       31       26 ar
  34       31       32 1
  35       32        6 am
  36       32       33 2
  37        5       34 ar
  38       34       35 ar
  39       35        2 ar
  40       35       36 1
  41        1       37 1
  42        1       38 1
  43        1       39 1
  44        3       40 1
  45        4       41 1
  46       10       42 1
  47       11       43 1
  48       12       44 1
  49       12       45 1
  50       15       46 1
  51       17       47 1
  52       18       48 1
  53       19       49 1
  54       21       50 1
  55       22       51 1
  56       23       52 1
  57       27       53 1
  58       28       54 1
  59       29       55 1
  60       30       56 1
  61       34       57 1
  62       36       58 1
  63       36       59 1
  64       36       60 1

@<TRIPOS>MOLECULE

  60   64
SMALL
USER_CHARGES
@<TRIPOS>ATOM
   1 C1           3.2876    -7.3552    -0.3659 C.3          1    LIG   0.0000
   2 C2           2.5099    -6.0874    -0.0513 C.ar         1    LIG   0.0000
   3 C3           2.0010    -5.3400    -1.1079 C.ar         1    LIG   0.0000
   4 C4           1.2832    -4.1733    -0.8667 C.ar         1    LIG   0.0000
   5 C5           1.0822    -3.7657     0.4478 C.ar         1    LIG   0.0000
   6 N6           0.3600    -2.5924     0.6953 N.am         1    LIG   0.0000
   7 C7           1.0562    -1.3826     0.7665 C.2          1    LIG   0.0000
   8 O8           2.2690    -1.3392     0.6287 O.2          1    LIG   0.0000
   9 C9           0.3371    -0.1482     1.0000 C.2          1    LIG   0.0000
  10 C10          1.0000     1.0000     1.0000 C.2          1    LIG   0.0000
  11 N11          2.3700     1.0000     1.0000 N.pl3        1    LIG   0.0000
  12 C12          3.1050     2.2731     1.0000 C.3          1    LIG   0.0000
  13 C13          3.3583     2.7118    -0.4331 C.2          1    LIG   0.0000
  14 O14          2.9684     2.0365    -1.3452 O.2          1    LIG   0.0000
  15 N15          4.0318     3.8783    -0.6834 N.am         1    LIG   0.0000
  16 C16          4.2653     4.2827    -2.0042 C.ar         1    LIG   0.0000
  17 C17          5.5849     4.4408    -2.4127 C.ar         1    LIG   0.0000
  18 C18          5.8836     4.8410    -3.7108 C.ar         1    LIG   0.0000
  19 C19          4.8437     5.0835    -4.6019 C.ar         1    LIG   0.0000
  20 C20          3.5242     4.9241    -4.1905 C.ar         1    LIG   0.0000
  21 C21          2.4912     5.1696    -5.0888 C.ar         1    LIG   0.0000
  22 C22          1.1721     5.0115    -4.6776 C.ar         1    LIG   0.0000
  23 C23          0.9162     4.6101    -3.3708 C.ar         1    LIG   0.0000
  24 N24          1.9341     4.3817    -2.5282 N.ar         1    LIG   0.0000
  25 C25          3.2194     4.5232    -2.8913 C.ar         1    LIG   0.0000
  26 C26         -1.1044    -0.2154     1.1980 C.ar         1    LIG   0.0000
  27 C27         -1.8002     0.9622     1.4543 C.ar         1    LIG   0.0000
  28 C28         -3.1752     0.9207     1.6389 C.ar         1    LIG   0.0000
  29 C29         -3.8565    -0.2891     1.5674 C.ar         1    LIG   0.0000
  30 C30         -3.1580    -1.4635     1.3138 C.ar         1    LIG   0.0000
  31 C31         -1.7794    -1.4355     1.1336 C.ar         1    LIG   0.0000
  32 C32         -1.0314    -2.6488     0.8608 C.2          1    LIG   0.0000
  33 O33         -1.5758    -3.7399     0.7711 O.2          1    LIG   0.0000
  34 C34          1.5863    -4.5042     1.5138 C.ar         1    LIG   0.0000
  35 C35          2.3026    -5.6693     1.2602 C.ar         1    LIG   0.0000
  36 C36          2.8449    -6.4623     2.4386 C.3          1    LIG   0.0000
  37 H            3.3277    -7.4844    -1.3568 H            1    LIG   0.0000
  38 H            4.2157    -7.2758    -0.0023 H            1    LIG   0.0000
  39 H            2.8309    -8.1393     0.0542 H            1    LIG   0.0000
  40 H            2.1524    -5.6438    -2.0485 H            1    LIG   0.0000
  41 H            0.9173    -3.6359    -1.6266 H            1    LIG   0.0000
  42 H            0.5000     1.8660     1.0000 H            1    LIG   0.0000
  43 H            2.8700     0.1340     1.0000 H            1    LIG   0.0000
  44 H            3.9788     2.1535     1.4714 H            1    LIG   0.0000
  45 H            2.5646     2.9700     1.4714 H            1    LIG   0.0000
  46 H            4.3567     4.4411     0.0767 H            1    LIG   0.0000
  47 H            6.3273     4.2648    -1.7662 H            1    LIG   0.0000
  48 H            6.8344     4.9530    -3.9998 H            1    LIG   0.0000
  49 H            5.0444     5.3724    -5.5380 H            1    LIG   0.0000
  50 H            2.6957     5.4579    -6.0243 H            1    LIG   0.0000
  51 H            0.4186     5.1839    -5.3121 H            1    LIG   0.0000
  52 H           -0.0267     4.4918    -3.0595 H            1    LIG   0.0000
  53 H           -1.3123     1.8335     1.5053 H            1    LIG   0.0000
  54 H           -3.6782     1.7649     1.8241 H            1    LIG   0.0000
  55 H           -4.8476    -0.3142     1.6982 H            1    LIG   0.0000
  56 H           -3.6492    -2.3330     1.2607 H            1    LIG   0.0000
  57 H            1.4348    -4.2000     2.4543 H            1    LIG   0.0000
  58 H            2.5945    -6.0047     3.2918 H            1    LIG   0.0000
  59 H            2.4560    -7.3835     2.4278 H            1    LIG   0.0000
  60 H            3.8410    -6.5201     2.3714 H            1    LIG   0.0000
@<TRIPOS>BOND
   1        1        2 1
   2        2        3 ar
   3        3        4 ar
   4        4        5 ar
   5        5        6 1
   6        6        7 am
   7        7        8 2
   8        7        9 1
   9        9       10 2
  10       10       11 1
  11       11       12 1
  12       12       13 1
  13       13       14 2
  14       13       15 am
  15       15       16 1
  16       16       17 ar
  17       17       18 ar
  18       18       19 ar
  19       19       20 ar
  20       20       21 ar
  21       21       22 ar
  22       22       23 ar
  23       23       24 ar
  24       24       25 ar
  25       25       16 ar
  26       25       20 ar
  27        9       26 1
  28       26       27 ar
  29       27       28 ar
  30       28       29 ar
  31       29       30 ar
  32       30       31 ar
  33       31       26 ar
  34       31       32 1
  35       32        6 am
  36       32       33 2
  37        5       34 ar
  38       34       35 ar
  39       35        2 ar
  40       35       36 1
  41        1       37 1
  42        1       38 1
  43        1       39 1
  44        3       40 1
  45        4       41 1
  46       10       42 1
  47       11       43 1
  48       12       44 1
  49       12       45 1
  50       15       46 1
  51       17       47 1
  52       18       48 1
  53       19       49 1
  54       21       50 1
  55       22       51 1
  56       23       52 1
  57       27       53 1
  58       28       54 1
  59       29       55 1
  60       30       56 1
  61       34       57 1
  62       36       58 1
  63       36       59 1
  64       36       60 1

@<TRIPOS>MOLECULE

  60   64
SMALL
USER_CHARGES
@<TRIPOS>ATOM
   1 C1           3.3034    -7.3687    -0.2556 C.3          1    LIG   0.0000
   2 C2           2.5133    -6.0892    -0.0329 C.ar         1    LIG   0.0000
   3 C3           2.2977    -5.6594     1.2719 C.ar         1    LIG   0.0000
   4 C4           1.5804    -4.4943     1.5227 C.ar         1    LIG   0.0000
   5 C5           1.0822    -3.7657     0.4478 C.ar         1    LIG   0.0000
   6 N6           0.3600    -2.5924     0.6953 N.am         1    LIG   0.0000
   7 C7           1.0562    -1.3826     0.7665 C.2          1    LIG   0.0000
   8 O8           2.2690    -1.3392     0.6287 O.2          1    LIG   0.0000
   9 C9           0.3371    -0.1482     1.0000 C.2          1    LIG   0.0000
  10 C10          1.0000     1.0000     1.0000 C.2          1    LIG   0.0000
  11 N11          2.3700     1.0000     1.0000 N.pl3        1    LIG   0.0000
  12 C12          3.1050     2.2731     1.0000 C.3          1    LIG   0.0000
  13 C13          3.3583     2.7118    -0.4331 C.2          1    LIG   0.0000
  14 O14          2.5045     2.5690    -1.2641 O.2          1    LIG   0.0000
  15 N15          4.5614     3.2704    -0.7759 N.am         1    LIG   0.0000
  16 C16          4.9675     3.2909    -2.1166 C.ar         1    LIG   0.0000
  17 C17          5.6000     4.4361    -2.5874 C.ar         1    LIG   0.0000
  18 C18          6.0265     4.5198    -3.9086 C.ar         1    LIG   0.0000
  19 C19          5.8128     3.4409    -4.7598 C.ar         1    LIG   0.0000
  20 C20          5.1800     2.2960    -4.2858 C.ar         1    LIG   0.0000
  21 C21          4.9704     1.2226    -5.1449 C.ar         1    LIG   0.0000
  22 C22          4.3368     0.0785    -4.6717 C.ar         1    LIG   0.0000
  23 C23          3.9254     0.0353    -3.3438 C.ar         1    LIG   0.0000
  24 N24          4.1415     1.0870    -2.5406 N.ar         1    LIG   0.0000
  25 C25          4.7509     2.2068    -2.9631 C.ar         1    LIG   0.0000
  26 C26         -1.1044    -0.2154     1.1980 C.ar         1    LIG   0.0000
  27 C27         -1.8002     0.9622     1.4543 C.ar         1    LIG   0.0000
  28 C28         -3.1752     0.9207     1.6389 C.ar         1    LIG   0.0000
  29 C29         -3.8565    -0.2891     1.5674 C.ar         1    LIG   0.0000
  30 C30         -3.1580    -1.4635     1.3138 C.ar         1    LIG   0.0000
  31 C31         -1.7794    -1.4355     1.1336 C.ar         1    LIG   0.0000
  32 C32         -1.0314    -2.6488     0.8608 C.2          1    LIG   0.0000
  33 O33         -1.5758    -3.7399     0.7711 O.2          1    LIG   0.0000
  34 C34          1.2906    -4.1850    -0.8624 C.ar         1    LIG   0.0000
  35 C35          2.0094    -5.3517    -1.1007 C.ar         1    LIG   0.0000
  36 C36          2.2266    -5.7928    -2.5394 C.3          1    LIG   0.0000
  37 H            3.5771    -7.7495     0.6277 H            1    LIG   0.0000
  38 H            2.7343    -8.0315    -0.7423 H            1    LIG   0.0000
  39 H            4.1185    -7.1670    -0.7986 H            1    LIG   0.0000
  40 H            2.6612    -6.1922     2.0361 H            1    LIG   0.0000
  41 H            1.4254    -4.1854     2.4611 H            1    LIG   0.0000
  42 H            0.5000     1.8660     1.0000 H            1    LIG   0.0000
  43 H            2.8700     0.1340     1.0000 H            1    LIG   0.0000
  44 H            3.9788     2.1535     1.4714 H            1    LIG   0.0000
  45 H            2.5646     2.9700     1.4714 H            1    LIG   0.0000
  46 H            5.1497     3.6634    -0.0692 H            1    LIG   0.0000
  47 H            5.7498     5.2079    -1.9695 H            1    LIG   0.0000
  48 H            6.4811     5.3456    -4.2423 H            1    LIG   0.0000
  49 H            6.1138     3.4880    -5.7122 H            1    LIG   0.0000
  50 H            5.2731     1.2731    -6.0967 H            1    LIG   0.0000
  51 H            4.1794    -0.7016    -5.2773 H            1    LIG   0.0000
  52 H            3.4685    -0.7800    -2.9881 H            1    LIG   0.0000
  53 H           -1.3123     1.8335     1.5053 H            1    LIG   0.0000
  54 H           -3.6782     1.7649     1.8241 H            1    LIG   0.0000
  55 H           -4.8476    -0.3142     1.6982 H            1    LIG   0.0000
  56 H           -3.6492    -2.3330     1.2607 H            1    LIG   0.0000
  57 H            0.9268    -3.6520    -1.6263 H            1    LIG   0.0000
  58 H            1.7924    -5.1379    -3.1580 H            1    LIG   0.0000
  59 H            3.2072    -5.8329    -2.7313 H            1    LIG   0.0000
  60 H            1.8230    -6.6976    -2.6752 H            1    LIG   0.0000
@<TRIPOS>BOND
   1        1        2 1
   2        2        3 ar
   3        3        4 ar
   4        4        5 ar
   5        5        6 1
   6        6        7 am
   7        7        8 2
   8        7        9 1
   9        9       10 2
  10       10       11 1
  11       11       12 1
  12       12       13 1
  13       13       14 2
  14       13       15 am
  15       15       16 1
  16       16       17 ar
  17       17       18 ar
  18       18       19 ar
  19       19       20 ar
  20       20       21 ar
  21       21       22 ar
  22       22       23 ar
  23       23       24 ar
  24       24       25 ar
  25       25       16 ar
  26       25       20 ar
  27        9       26 1
  28       26       27 ar
  29       27       28 ar
  30       28       29 ar
  31       29       30 ar
  32       30       31 ar
  33       31       26 ar
  34       31       32 1
  35       32        6 am
  36       32       33 2
  37        5       34 ar
  38       34       35 ar
  39       35        2 ar
  40       35       36 1
  41        1       37 1
  42        1       38 1
  43        1       39 1
  44        3       40 1
  45        4       41 1
  46       10       42 1
  47       11       43 1
  48       12       44 1
  49       12       45 1
  50       15       46 1
  51       17       47 1
  52       18       48 1
  53       19       49 1
  54       21       50 1
  55       22       51 1
  56       23       52 1
  57       27       53 1
  58       28       54 1
  59       29       55 1
  60       30       56 1
  61       34       57 1
  62       36       58 1
  63       36       59 1
  64       36       60 1

@<TRIPOS>MOLECULE

  60   64
SMALL
USER_CHARGES
@<TRIPOS>ATOM
   1 C1           3.2876    -7.3552    -0.3659 C.3          1    LIG   0.0000
   2 C2           2.5099    -6.0874    -0.0513 C.ar         1    LIG   0.0000
   3 C3           2.0010    -5.3400    -1.1079 C.ar         1    LIG   0.0000
   4 C4           1.2832    -4.1733    -0.8667 C.ar         1    LIG   0.0000
   5 C5           1.0822    -3.7657     0.4478 C.ar         1    LIG   0.0000
   6 N6           0.3600    -2.5924     0.6953 N.am         1    LIG   0.0000
   7 C7           1.0562    -1.3826     0.7665 C.2          1    LIG   0.0000
   8 O8           2.2690    -1.3392     0.6287 O.2          1    LIG   0.0000
   9 C9           0.3371    -0.1482     1.0000 C.2          1    LIG   0.0000
  10 C10          1.0000     1.0000     1.0000 C.2          1    LIG   0.0000
  11 N11          2.3700     1.0000     1.0000 N.pl3        1    LIG   0.0000
  12 C12          3.1050     2.2731     1.0000 C.3          1    LIG   0.0000
  13 C13          3.7828     2.4668    -0.3466 C.2          1    LIG   0.0000
  14 O14          3.1243     2.5122    -1.3488 O.2          1    LIG   0.0000
  15 N15          5.1455     2.5895    -0.4163 N.am         1    LIG   0.0000
  16 C16          5.8309     2.1511    -1.5568 C.ar         1    LIG   0.0000
  17 C17          5.1644     2.2014    -2.7760 C.ar         1    LIG   0.0000
  18 C18          5.7891     1.7800    -3.9449 C.ar         1    LIG   0.0000
  19 C19          7.0946     1.3045    -3.8827 C.ar         1    LIG   0.0000
  20 C20          7.7593     1.2558    -2.6614 C.ar         1    LIG   0.0000
  21 C21          9.0645     0.7781    -2.6094 C.ar         1    LIG   0.0000
  22 C22          9.7288     0.7282    -1.3885 C.ar         1    LIG   0.0000
  23 C23          9.0682     1.1588    -0.2428 C.ar         1    LIG   0.0000
  24 N24          7.8094     1.6136    -0.3257 N.ar         1    LIG   0.0000
  25 C25          7.1382     1.6768    -1.4873 C.ar         1    LIG   0.0000
  26 C26         -1.1044    -0.2154     1.1980 C.ar         1    LIG   0.0000
  27 C27         -1.8002     0.9622     1.4543 C.ar         1    LIG   0.0000
  28 C28         -3.1752     0.9207     1.6389 C.ar         1    LIG   0.0000
  29 C29         -3.8565    -0.2891     1.5674 C.ar         1    LIG   0.0000
  30 C30         -3.1580    -1.4635     1.3138 C.ar         1    LIG   0.0000
  31 C31         -1.7794    -1.4355     1.1336 C.ar         1    LIG   0.0000
  32 C32         -1.0314    -2.6488     0.8608 C.2          1    LIG   0.0000
  33 O33         -1.5758    -3.7399     0.7711 O.2          1    LIG   0.0000
  34 C34          1.5863    -4.5042     1.5138 C.ar         1    LIG   0.0000
  35 C35          2.3026    -5.6693     1.2602 C.ar         1    LIG   0.0000
  36 C36          2.8449    -6.4623     2.4386 C.3          1    LIG   0.0000
  37 H            3.3277    -7.4844    -1.3568 H            1    LIG   0.0000
  38 H            4.2157    -7.2758    -0.0023 H            1    LIG   0.0000
  39 H            2.8309    -8.1393     0.0542 H            1    LIG   0.0000
  40 H            2.1524    -5.6438    -2.0485 H            1    LIG   0.0000
  41 H            0.9173    -3.6359    -1.6266 H            1    LIG   0.0000
  42 H            0.5000     1.8660     1.0000 H            1    LIG   0.0000
  43 H            2.8700     0.1340     1.0000 H            1    LIG   0.0000
  44 H            3.7965     2.2587     1.7222 H            1    LIG   0.0000
  45 H            2.4676     3.0260     1.1637 H            1    LIG   0.0000
  46 H            5.6509     2.9920     0.3470 H            1    LIG   0.0000
  47 H            4.2257     2.5442    -2.8127 H            1    LIG   0.0000
  48 H            5.3055     1.8184    -4.8194 H            1    LIG   0.0000
  49 H            7.5554     0.9978    -4.7155 H            1    LIG   0.0000
  50 H            9.5222     0.4726    -3.4443 H            1    LIG   0.0000
  51 H           10.6675     0.3876    -1.3352 H            1    LIG   0.0000
  52 H            9.5319     1.1294     0.6427 H            1    LIG   0.0000
  53 H           -1.3123     1.8335     1.5053 H            1    LIG   0.0000
  54 H           -3.6782     1.7649     1.8241 H            1    LIG   0.0000
  55 H           -4.8476    -0.3142     1.6982 H            1    LIG   0.0000
  56 H           -3.6492    -2.3330     1.2607 H            1    LIG   0.0000
  57 H            1.4348    -4.2000     2.4543 H            1    LIG   0.0000
  58 H            2.5945    -6.0047     3.2918 H            1    LIG   0.0000
  59 H            2.4560    -7.3835     2.4278 H            1    LIG   0.0000
  60 H            3.8410    -6.5201     2.3714 H            1    LIG   0.0000
@<TRIPOS>BOND
   1        1        2 1
   2        2        3 ar
   3        3        4 ar
   4        4        5 ar
   5        5        6 1
   6        6        7 am
   7        7        8 2
   8        7        9 1
   9        9       10 2
  10       10       11 1
  11       11       12 1
  12       12       13 1
  13       13       14 2
  14       13       15 am
  15       15       16 1
  16       16       17 ar
  17       17       18 ar
  18       18       19 ar
  19       19       20 ar
  20       20       21 ar
  21       21       22 ar
  22       22       23 ar
  23       23       24 ar
  24       24       25 ar
  25       25       16 ar
  26       25       20 ar
  27        9       26 1
  28       26       27 ar
  29       27       28 ar
  30       28       29 ar
  31       29       30 ar
  32       30       31 ar
  33       31       26 ar
  34       31       32 1
  35       32        6 am
  36       32       33 2
  37        5       34 ar
  38       34       35 ar
  39       35        2 ar
  40       35       36 1
  41        1       37 1
  42        1       38 1
  43        1       39 1
  44        3       40 1
  45        4       41 1
  46       10       42 1
  47       11       43 1
  48       12       44 1
  49       12       45 1
  50       15       46 1
  51       17       47 1
  52       18       48 1
  53       19       49 1
  54       21       50 1
  55       22       51 1
  56       23       52 1
  57       27       53 1
  58       28       54 1
  59       29       55 1
  60       30       56 1
  61       34       57 1
  62       36       58 1
  63       36       59 1
  64       36       60 1

@<TRIPOS>MOLECULE

  60   64
SMALL
USER_CHARGES
@<TRIPOS>ATOM
   1 C1           3.3405    -7.3395    -0.2859 C.3          1    LIG   0.0000
   2 C2           2.5193    -6.0843    -0.0384 C.ar         1    LIG   0.0000
   3 C3           3.1117    -5.0252     0.6407 C.ar         1    LIG   0.0000
   4 C4           2.3979    -3.8575     0.8891 C.ar         1    LIG   0.0000
   5 C5           1.0822    -3.7657     0.4478 C.ar         1    LIG   0.0000
   6 N6           0.3600    -2.5924     0.6953 N.am         1    LIG   0.0000
   7 C7           1.0562    -1.3826     0.7665 C.2          1    LIG   0.0000
   8 O8           2.2690    -1.3392     0.6287 O.2          1    LIG   0.0000
   9 C9           0.3371    -0.1482     1.0000 C.2          1    LIG   0.0000
  10 C10          1.0000     1.0000     1.0000 C.2          1    LIG   0.0000
  11 N11          2.3700     1.0000     1.0000 N.pl3        1    LIG   0.0000
  12 C12          3.1050     2.2731     1.0000 C.3          1    LIG   0.0000
  13 C13          2.7378     3.0701    -0.2411 C.2          1    LIG   0.0000
  14 O14          1.9529     2.6228    -1.0310 O.2          1    LIG   0.0000
  15 N15          3.3029     4.2992    -0.4579 N.am         1    LIG   0.0000
  16 C16          2.5935     5.2822    -1.1600 C.ar         1    LIG   0.0000
  17 C17          3.1526     5.7744    -2.3341 C.ar         1    LIG   0.0000
  18 C18          2.4990     6.7517    -3.0769 C.ar         1    LIG   0.0000
  19 C19          1.2734     7.2356    -2.6316 C.ar         1    LIG   0.0000
  20 C20          0.7161     6.7410    -1.4566 C.ar         1    LIG   0.0000
  21 C21         -0.5095     7.2316    -1.0192 C.ar         1    LIG   0.0000
  22 C22         -1.0663     6.7382     0.1559 C.ar         1    LIG   0.0000
  23 C23         -0.3802     5.7613     0.8694 C.ar         1    LIG   0.0000
  24 N24          0.8001     5.3090     0.4218 N.ar         1    LIG   0.0000
  25 C25          1.3667     5.7617    -0.7087 C.ar         1    LIG   0.0000
  26 C26         -1.1044    -0.2154     1.1980 C.ar         1    LIG   0.0000
  27 C27         -1.8002     0.9622     1.4543 C.ar         1    LIG   0.0000
  28 C28         -3.1752     0.9207     1.6389 C.ar         1    LIG   0.0000
  29 C29         -3.8565    -0.2891     1.5674 C.ar         1    LIG   0.0000
  30 C30         -3.1580    -1.4635     1.3138 C.ar         1    LIG   0.0000
  31 C31         -1.7794    -1.4355     1.1336 C.ar         1    LIG   0.0000
  32 C32         -1.0314    -2.6488     0.8608 C.2          1    LIG   0.0000
  33 O33         -1.5758    -3.7399     0.7711 O.2          1    LIG   0.0000
  34 C34          0.4776    -4.8182    -0.2324 C.ar         1    LIG   0.0000
  35 C35          1.2015    -5.9810    -0.4750 C.ar         1    LIG   0.0000
  36 C36          0.5231    -7.1195    -1.2200 C.3          1    LIG   0.0000
  37 H            4.2553    -7.2208     0.1003 H            1    LIG   0.0000
  38 H            2.8939    -8.1213     0.1492 H            1    LIG   0.0000
  39 H            3.4127    -7.5020    -1.2700 H            1    LIG   0.0000
  40 H            4.0585    -5.1037     0.9528 H            1    LIG   0.0000
  41 H            2.8241    -3.0960     1.3775 H            1    LIG   0.0000
  42 H            0.5000     1.8660     1.0000 H            1    LIG   0.0000
  43 H            2.8700     0.1340     1.0000 H            1    LIG   0.0000
  44 H            4.0882     2.0903     1.0000 H            1    LIG   0.0000
  45 H            2.8634     2.7974     1.8165 H            1    LIG   0.0000
  46 H            4.2217     4.4946    -0.1149 H            1    LIG   0.0000
  47 H            4.0343     5.4218    -2.6478 H            1    LIG   0.0000
  48 H            2.9051     7.1023    -3.9208 H            1    LIG   0.0000
  49 H            0.7930     7.9388    -3.1557 H            1    LIG   0.0000
  50 H           -0.9873     7.9345    -1.5462 H            1    LIG   0.0000
  51 H           -1.9471     7.0809     0.4829 H            1    LIG   0.0000
  52 H           -0.7670     5.3961     1.7162 H            1    LIG   0.0000
  53 H           -1.3123     1.8335     1.5053 H            1    LIG   0.0000
  54 H           -3.6782     1.7649     1.8241 H            1    LIG   0.0000
  55 H           -4.8476    -0.3142     1.6982 H            1    LIG   0.0000
  56 H           -3.6492    -2.3330     1.2607 H            1    LIG   0.0000
  57 H           -0.4693    -4.7394    -0.5442 H            1    LIG   0.0000
  58 H           -0.4144    -6.8568    -1.4480 H            1    LIG   0.0000
  59 H            1.0282    -7.3155    -2.0606 H            1    LIG   0.0000
  60 H            0.5094    -7.9351    -0.6415 H            1    LIG   0.0000
@<TRIPOS>BOND
   1        1        2 1
   2        2        3 ar
   3        3        4 ar
   4        4        5 ar
   5        5        6 1
   6        6        7 am
   7        7        8 2
   8        7        9 1
   9        9       10 2
  10       10       11 1
  11       11       12 1
  12       12       13 1
  13       13       14 2
  14       13       15 am
  15       15       16 1
  16       16       17 ar
  17       17       18 ar
  18       18       19 ar
  19       19       20 ar
  20       20       21 ar
  21       21       22 ar
  22       22       23 ar
  23       23       24 ar
  24       24       25 ar
  25       25       16 ar
  26       25       20 ar
  27        9       26 1
  28       26       27 ar
  29       27       28 ar
  30       28       29 ar
  31       29       30 ar
  32       30       31 ar
  33       31       26 ar
  34       31       32 1
  35       32        6 am
  36       32       33 2
  37        5       34 ar
  38       34       35 ar
  39       35        2 ar
  40       35       36 1
  41        1       37 1
  42        1       38 1
  43        1       39 1
  44        3       40 1
  45        4       41 1
  46       10       42 1
  47       11       43 1
  48       12       44 1
  49       12       45 1
  50       15       46 1
  51       17       47 1
  52       18       48 1
  53       19       49 1
  54       21       50 1
  55       22       51 1
  56       23       52 1
  57       27       53 1
  58       28       54 1
  59       29       55 1
  60       30       56 1
  61       34       57 1
  62       36       58 1
  63       36       59 1
  64       36       60 1

@<TRIPOS>MOLECULE

  60   64
SMALL
USER_CHARGES
@<TRIPOS>ATOM
   1 C1           3.2501    -7.3925    -0.2981 C.3          1    LIG   0.0000
   2 C2           2.5042    -6.0934    -0.0395 C.ar         1    LIG   0.0000
   3 C3           1.1651    -6.1578     0.3300 C.ar         1    LIG   0.0000
   4 C4           0.4434    -4.9945     0.5766 C.ar         1    LIG   0.0000
   5 C5           1.0822    -3.7657     0.4478 C.ar         1    LIG   0.0000
   6 N6           0.3600    -2.5924     0.6953 N.am         1    LIG   0.0000
   7 C7           1.0562    -1.3826     0.7665 C.2          1    LIG   0.0000
   8 O8           2.2690    -1.3392     0.6287 O.2          1    LIG   0.0000
   9 C9           0.3371    -0.1482     1.0000 C.2          1    LIG   0.0000
  10 C10          1.0000     1.0000     1.0000 C.2          1    LIG   0.0000
  11 N11          2.3700     1.0000     1.0000 N.pl3        1    LIG   0.0000
  12 C12          3.1050     2.2731     1.0000 C.3          1    LIG   0.0000
  13 C13          2.7378     3.0701    -0.2411 C.2          1    LIG   0.0000
  14 O14          2.9479     2.6141    -1.3310 O.2          1    LIG   0.0000
  15 N15          2.1670     4.3092    -0.1154 N.am         1    LIG   0.0000
  16 C16          1.2838     4.7764    -1.0974 C.ar         1    LIG   0.0000
  17 C17         -0.0800     4.6856    -0.8423 C.ar         1    LIG   0.0000
  18 C18         -1.0086     5.1311    -1.7769 C.ar         1    LIG   0.0000
  19 C19         -0.5578     5.6711    -2.9767 C.ar         1    LIG   0.0000
  20 C20          0.8075     5.7612    -3.2290 C.ar         1    LIG   0.0000
  21 C21          1.2485     6.3022    -4.4320 C.ar         1    LIG   0.0000
  22 C22          2.6132     6.3912    -4.6850 C.ar         1    LIG   0.0000
  23 C23          3.5088     5.9341    -3.7241 C.ar         1    LIG   0.0000
  24 N24          3.0522     5.4169    -2.5743 N.ar         1    LIG   0.0000
  25 C25          1.7421     5.3166    -2.2961 C.ar         1    LIG   0.0000
  26 C26         -1.1044    -0.2154     1.1980 C.ar         1    LIG   0.0000
  27 C27         -1.8002     0.9622     1.4543 C.ar         1    LIG   0.0000
  28 C28         -3.1752     0.9207     1.6389 C.ar         1    LIG   0.0000
  29 C29         -3.8565    -0.2891     1.5674 C.ar         1    LIG   0.0000
  30 C30         -3.1580    -1.4635     1.3138 C.ar         1    LIG   0.0000
  31 C31         -1.7794    -1.4355     1.1336 C.ar         1    LIG   0.0000
  32 C32         -1.0314    -2.6488     0.8608 C.2          1    LIG   0.0000
  33 O33         -1.5758    -3.7399     0.7711 O.2          1    LIG   0.0000
  34 C34          2.4213    -3.6875     0.0785 C.ar         1    LIG   0.0000
  35 C35          3.1326    -4.8577    -0.1656 C.ar         1    LIG   0.0000
  36 C36          4.5950    -4.7510    -0.5677 C.3          1    LIG   0.0000
  37 H            2.6319    -8.1657    -0.1567 H            1    LIG   0.0000
  38 H            3.5860    -7.4023    -1.2399 H            1    LIG   0.0000
  39 H            4.0231    -7.4642     0.3322 H            1    LIG   0.0000
  40 H            0.7174    -7.0475     0.4192 H            1    LIG   0.0000
  41 H           -0.5195    -5.0410     0.8423 H            1    LIG   0.0000
  42 H            0.5000     1.8660     1.0000 H            1    LIG   0.0000
  43 H            2.8700     0.1340     1.0000 H            1    LIG   0.0000
  44 H            4.0882     2.0903     1.0000 H            1    LIG   0.0000
  45 H            2.8634     2.7974     1.8165 H            1    LIG   0.0000
  46 H            2.3807     4.8801     0.6773 H            1    LIG   0.0000
  47 H           -0.3966     4.2958     0.0225 H            1    LIG   0.0000
  48 H           -1.9885     5.0639    -1.5886 H            1    LIG   0.0000
  49 H           -1.2147     5.9947    -3.6577 H            1    LIG   0.0000
  50 H            0.5887     6.6251    -5.1105 H            1    LIG   0.0000
  51 H            2.9455     6.7782    -5.5451 H            1    LIG   0.0000
  52 H            4.4932     5.9911    -3.8908 H            1    LIG   0.0000
  53 H           -1.3123     1.8335     1.5053 H            1    LIG   0.0000
  54 H           -3.6782     1.7649     1.8241 H            1    LIG   0.0000
  55 H           -4.8476    -0.3142     1.6982 H            1    LIG   0.0000
  56 H           -3.6492    -2.3330     1.2607 H            1    LIG   0.0000
  57 H            2.8686    -2.7976    -0.0108 H            1    LIG   0.0000
  58 H            4.8613    -3.7878    -0.6039 H            1    LIG   0.0000
  59 H            5.1612    -5.2284     0.1042 H            1    LIG   0.0000
  60 H            4.7243    -5.1667    -1.4680 H            1    LIG   0.0000
@<TRIPOS>BOND
   1        1        2 1
   2        2        3 ar
   3        3        4 ar
   4        4        5 ar
   5        5        6 1
   6        6        7 am
   7        7        8 2
   8        7        9 1
   9        9       10 2
  10       10       11 1
  11       11       12 1
  12       12       13 1
  13       13       14 2
  14       13       15 am
  15       15       16 1
  16       16       17 ar
  17       17       18 ar
  18       18       19 ar
  19       19       20 ar
  20       20       21 ar
  21       21       22 ar
  22       22       23 ar
  23       23       24 ar
  24       24       25 ar
  25       25       16 ar
  26       25       20 ar
  27        9       26 1
  28       26       27 ar
  29       27       28 ar
  30       28       29 ar
  31       29       30 ar
  32       30       31 ar
  33       31       26 ar
  34       31       32 1
  35       32        6 am
  36       32       33 2
  37        5       34 ar
  38       34       35 ar
  39       35        2 ar
  40       35       36 1
  41        1       37 1
  42        1       38 1
  43        1       39 1
  44        3       40 1
  45        4       41 1
  46       10       42 1
  47       11       43 1
  48       12       44 1
  49       12       45 1
  50       15       46 1
  51       17       47 1
  52       18       48 1
  53       19       49 1
  54       21       50 1
  55       22       51 1
  56       23       52 1
  57       27       53 1
  58       28       54 1
  59       29       55 1
  60       30       56 1
  61       34       57 1
  62       36       58 1
  63       36       59 1
  64       36       60 1

@<TRIPOS>MOLECULE

  60   64
SMALL
USER_CHARGES
@<TRIPOS>ATOM
   1 C1           3.3405    -7.3395    -0.2859 C.3          1    LIG   0.0000
   2 C2           2.5193    -6.0843    -0.0384 C.ar         1    LIG   0.0000
   3 C3           3.1117    -5.0252     0.6407 C.ar         1    LIG   0.0000
   4 C4           2.3979    -3.8575     0.8891 C.ar         1    LIG   0.0000
   5 C5           1.0822    -3.7657     0.4478 C.ar         1    LIG   0.0000
   6 N6           0.3600    -2.5924     0.6953 N.am         1    LIG   0.0000
   7 C7           1.0562    -1.3826     0.7665 C.2          1    LIG   0.0000
   8 O8           2.2690    -1.3392     0.6287 O.2          1    LIG   0.0000
   9 C9           0.3371    -0.1482     1.0000 C.2          1    LIG   0.0000
  10 C10          1.0000     1.0000     1.0000 C.2          1    LIG   0.0000
  11 N11          2.3700     1.0000     1.0000 N.pl3        1    LIG   0.0000
  12 C12          3.1050     2.2731     1.0000 C.3          1    LIG   0.0000
  13 C13          2.7378     3.0701    -0.2411 C.2          1    LIG   0.0000
  14 O14          2.9479     2.6141    -1.3310 O.2          1    LIG   0.0000
  15 N15          2.1670     4.3092    -0.1154 N.am         1    LIG   0.0000
  16 C16          2.3857     5.2841    -1.0974 C.ar         1    LIG   0.0000
  17 C17          2.5853     6.5952    -0.6796 C.ar         1    LIG   0.0000
  18 C18          2.8068     7.6096    -1.6049 C.ar         1    LIG   0.0000
  19 C19          2.8266     7.2987    -2.9603 C.ar         1    LIG   0.0000
  20 C20          2.6270     5.9858    -3.3755 C.ar         1    LIG   0.0000
  21 C21          2.6479     5.6850    -4.7332 C.ar         1    LIG   0.0000
  22 C22          2.4472     4.3730    -5.1486 C.ar         1    LIG   0.0000
  23 C23          2.2287     3.3881    -4.1912 C.ar         1    LIG   0.0000
  24 N24          2.2137     3.7101    -2.8895 N.ar         1    LIG   0.0000
  25 C25          2.4048     4.9657    -2.4527 C.ar         1    LIG   0.0000
  26 C26         -1.1044    -0.2154     1.1980 C.ar         1    LIG   0.0000
  27 C27         -1.8002     0.9622     1.4543 C.ar         1    LIG   0.0000
  28 C28         -3.1752     0.9207     1.6389 C.ar         1    LIG   0.0000
  29 C29         -3.8565    -0.2891     1.5674 C.ar         1    LIG   0.0000
  30 C30         -3.1580    -1.4635     1.3138 C.ar         1    LIG   0.0000
  31 C31         -1.7794    -1.4355     1.1336 C.ar         1    LIG   0.0000
  32 C32         -1.0314    -2.6488     0.8608 C.2          1    LIG   0.0000
  33 O33         -1.5758    -3.7399     0.7711 O.2          1    LIG   0.0000
  34 C34          0.4776    -4.8182    -0.2324 C.ar         1    LIG   0.0000
  35 C35          1.2015    -5.9810    -0.4750 C.ar         1    LIG   0.0000
  36 C36          0.5231    -7.1195    -1.2200 C.3          1    LIG   0.0000
  37 H            4.2553    -7.2208     0.1003 H            1    LIG   0.0000
  38 H            2.8939    -8.1213     0.1492 H            1    LIG   0.0000
  39 H            3.4127    -7.5020    -1.2700 H            1    LIG   0.0000
  40 H            4.0585    -5.1037     0.9528 H            1    LIG   0.0000
  41 H            2.8241    -3.0960     1.3775 H            1    LIG   0.0000
  42 H            0.5000     1.8660     1.0000 H            1    LIG   0.0000
  43 H            2.8700     0.1340     1.0000 H            1    LIG   0.0000
  44 H            4.0882     2.0903     1.0000 H            1    LIG   0.0000
  45 H            2.8634     2.7974     1.8165 H            1    LIG   0.0000
  46 H            1.5941     4.5177     0.6773 H            1    LIG   0.0000
  47 H            2.5695     6.8110     0.2967 H            1    LIG   0.0000
  48 H            2.9502     8.5509    -1.2993 H            1    LIG   0.0000
  49 H            2.9842     8.0185    -3.6363 H            1    LIG   0.0000
  50 H            2.8062     6.4074    -5.4063 H            1    LIG   0.0000
  51 H            2.4599     4.1412    -6.1212 H            1    LIG   0.0000
  52 H            2.0828     2.4399    -4.4734 H            1    LIG   0.0000
  53 H           -1.3123     1.8335     1.5053 H            1    LIG   0.0000
  54 H           -3.6782     1.7649     1.8241 H            1    LIG   0.0000
  55 H           -4.8476    -0.3142     1.6982 H            1    LIG   0.0000
  56 H           -3.6492    -2.3330     1.2607 H            1    LIG   0.0000
  57 H           -0.4693    -4.7394    -0.5442 H            1    LIG   0.0000
  58 H           -0.4144    -6.8568    -1.4480 H            1    LIG   0.0000
  59 H            1.0282    -7.3155    -2.0606 H            1    LIG   0.0000
  60 H            0.5094    -7.9351    -0.6415 H            1    LIG   0.0000
@<TRIPOS>BOND
   1        1        2 1
   2        2        3 ar
   3        3        4 ar
   4        4        5 ar
   5        5        6 1
   6        6        7 am
   7        7        8 2
   8        7        9 1
   9        9       10 2
  10       10       11 1
  11       11       12 1
  12       12       13 1
  13       13       14 2
  14       13       15 am
  15       15       16 1
  16       16       17 ar
  17       17       18 ar
  18       18       19 ar
  19       19       20 ar
  20       20       21 ar
  21       21       22 ar
  22       22       23 ar
  23       23       24 ar
  24       24       25 ar
  25       25       16 ar
  26       25       20 ar
  27        9       26 1
  28       26       27 ar
  29       27       28 ar
  30       28       29 ar
  31       29       30 ar
  32       30       31 ar
  33       31       26 ar
  34       31       32 1
  35       32        6 am
  36       32       33 2
  37        5       34 ar
  38       34       35 ar
  39       35        2 ar
  40       35       36 1
  41        1       37 1
  42        1       38 1
  43        1       39 1
  44        3       40 1
  45        4       41 1
  46       10       42 1
  47       11       43 1
  48       12       44 1
  49       12       45 1
  50       15       46 1
  51       17       47 1
  52       18       48 1
  53       19       49 1
  54       21       50 1
  55       22       51 1
  56       23       52 1
  57       27       53 1
  58       28       54 1
  59       29       55 1
  60       30       56 1
  61       34       57 1
  62       36       58 1
  63       36       59 1
  64       36       60 1

@<TRIPOS>MOLECULE

  60   64
SMALL
USER_CHARGES
@<TRIPOS>ATOM
   1 C1           3.2584    -7.3912    -0.2805 C.3          1    LIG   0.0000
   2 C2           2.5057    -6.0931    -0.0366 C.ar         1    LIG   0.0000
   3 C3           1.3353    -6.1339     0.7133 C.ar         1    LIG   0.0000
   4 C4           0.6143    -4.9706     0.9615 C.ar         1    LIG   0.0000
   5 C5           1.0822    -3.7657     0.4478 C.ar         1    LIG   0.0000
   6 N6           0.3600    -2.5924     0.6953 N.am         1    LIG   0.0000
   7 C7           1.0562    -1.3826     0.7665 C.2          1    LIG   0.0000
   8 O8           2.2690    -1.3392     0.6287 O.2          1    LIG   0.0000
   9 C9           0.3371    -0.1482     1.0000 C.2          1    LIG   0.0000
  10 C10          1.0000     1.0000     1.0000 C.2          1    LIG   0.0000
  11 N11          2.3700     1.0000     1.0000 N.pl3        1    LIG   0.0000
  12 C12          3.1050     2.2731     1.0000 C.3          1    LIG   0.0000
  13 C13          2.7378     3.0701    -0.2411 C.2          1    LIG   0.0000
  14 O14          3.2327     4.1467    -0.4310 O.2          1    LIG   0.0000
  15 N15          1.8418     2.5594    -1.1429 N.am         1    LIG   0.0000
  16 C16          1.5033     3.2941    -2.2867 C.ar         1    LIG   0.0000
  17 C17          2.3151     4.3682    -2.6340 C.ar         1    LIG   0.0000
  18 C18          2.0328     5.1378    -3.7575 C.ar         1    LIG   0.0000
  19 C19          0.9239     4.8214    -4.5351 C.ar         1    LIG   0.0000
  20 C20          0.1136     3.7457    -4.1855 C.ar         1    LIG   0.0000
  21 C21         -0.9934     3.4377    -4.9690 C.ar         1    LIG   0.0000
  22 C22         -1.8042     2.3633    -4.6191 C.ar         1    LIG   0.0000
  23 C23         -1.4872     1.6191    -3.4877 C.ar         1    LIG   0.0000
  24 N24         -0.4133     1.9418    -2.7523 N.ar         1    LIG   0.0000
  25 C25          0.3920     2.9714    -3.0610 C.ar         1    LIG   0.0000
  26 C26         -1.1044    -0.2154     1.1980 C.ar         1    LIG   0.0000
  27 C27         -1.8002     0.9622     1.4543 C.ar         1    LIG   0.0000
  28 C28         -3.1752     0.9207     1.6389 C.ar         1    LIG   0.0000
  29 C29         -3.8565    -0.2891     1.5674 C.ar         1    LIG   0.0000
  30 C30         -3.1580    -1.4635     1.3138 C.ar         1    LIG   0.0000
  31 C31         -1.7794    -1.4355     1.1336 C.ar         1    LIG   0.0000
  32 C32         -1.0314    -2.6488     0.8608 C.2          1    LIG   0.0000
  33 O33         -1.5758    -3.7399     0.7711 O.2          1    LIG   0.0000
  34 C34          2.2514    -3.7113    -0.3044 C.ar         1    LIG   0.0000
  35 C35          2.9639    -4.8813    -0.5460 C.ar         1    LIG   0.0000
  36 C36          4.2392    -4.8008    -1.3698 C.3          1    LIG   0.0000
  37 H            2.7742    -8.1456     0.1629 H            1    LIG   0.0000
  38 H            3.3154    -7.5638    -1.2638 H            1    LIG   0.0000
  39 H            4.1806    -7.3181     0.0992 H            1    LIG   0.0000
  40 H            1.0095    -7.0065     1.0771 H            1    LIG   0.0000
  41 H           -0.2273    -5.0001     1.5008 H            1    LIG   0.0000
  42 H            0.5000     1.8660     1.0000 H            1    LIG   0.0000
  43 H            2.8700     0.1340     1.0000 H            1    LIG   0.0000
  44 H            4.0882     2.0903     1.0000 H            1    LIG   0.0000
  45 H            2.8634     2.7974     1.8165 H            1    LIG   0.0000
  46 H            1.4293     1.6623    -0.9846 H            1    LIG   0.0000
  47 H            3.1105     4.5897    -2.0699 H            1    LIG   0.0000
  48 H            2.6198     5.9091    -4.0033 H            1    LIG   0.0000
  49 H            0.7090     5.3669    -5.3452 H            1    LIG   0.0000
  50 H           -1.2049     3.9851    -5.7787 H            1    LIG   0.0000
  51 H           -2.6034     2.1292    -5.1728 H            1    LIG   0.0000
  52 H           -2.0601     0.8435    -3.2226 H            1    LIG   0.0000
  53 H           -1.3123     1.8335     1.5053 H            1    LIG   0.0000
  54 H           -3.6782     1.7649     1.8241 H            1    LIG   0.0000
  55 H           -4.8476    -0.3142     1.6982 H            1    LIG   0.0000
  56 H           -3.6492    -2.3330     1.2607 H            1    LIG   0.0000
  57 H            2.5768    -2.8385    -0.6682 H            1    LIG   0.0000
  58 H            4.4003    -3.8524    -1.6430 H            1    LIG   0.0000
  59 H            5.0106    -5.1256    -0.8225 H            1    LIG   0.0000
  60 H            4.1456    -5.3714    -2.1856 H            1    LIG   0.0000
@<TRIPOS>BOND
   1        1        2 1
   2        2        3 ar
   3        3        4 ar
   4        4        5 ar
   5        5        6 1
   6        6        7 am
   7        7        8 2
   8        7        9 1
   9        9       10 2
  10       10       11 1
  11       11       12 1
  12       12       13 1
  13       13       14 2
  14       13       15 am
  15       15       16 1
  16       16       17 ar
  17       17       18 ar
  18       18       19 ar
  19       19       20 ar
  20       20       21 ar
  21       21       22 ar
  22       22       23 ar
  23       23       24 ar
  24       24       25 ar
  25       25       16 ar
  26       25       20 ar
  27        9       26 1
  28       26       27 ar
  29       27       28 ar
  30       28       29 ar
  31       29       30 ar
  32       30       31 ar
  33       31       26 ar
  34       31       32 1
  35       32        6 am
  36       32       33 2
  37        5       34 ar
  38       34       35 ar
  39       35        2 ar
  40       35       36 1
  41        1       37 1
  42        1       38 1
  43        1       39 1
  44        3       40 1
  45        4       41 1
  46       10       42 1
  47       11       43 1
  48       12       44 1
  49       12       45 1
  50       15       46 1
  51       17       47 1
  52       18       48 1
  53       19       49 1
  54       21       50 1
  55       22       51 1
  56       23       52 1
  57       27       53 1
  58       28       54 1
  59       29       55 1
  60       30       56 1
  61       34       57 1
  62       36       58 1
  63       36       59 1
  64       36       60 1

@<TRIPOS>MOLECULE

  60   64
SMALL
USER_CHARGES
@<TRIPOS>ATOM
   1 C1           3.2480    -7.3918    -0.3076 C.3          1    LIG   0.0000
   2 C2           2.5037    -6.0933    -0.0411 C.ar         1    LIG   0.0000
   3 C3           1.1237    -6.1398     0.1240 C.ar         1    LIG   0.0000
   4 C4           0.4020    -4.9764     0.3697 C.ar         1    LIG   0.0000
   5 C5           1.0822    -3.7657     0.4478 C.ar         1    LIG   0.0000
   6 N6           0.3600    -2.5924     0.6953 N.am         1    LIG   0.0000
   7 C7           1.0562    -1.3826     0.7665 C.2          1    LIG   0.0000
   8 O8           2.2690    -1.3392     0.6287 O.2          1    LIG   0.0000
   9 C9           0.3371    -0.1482     1.0000 C.2          1    LIG   0.0000
  10 C10          1.0000     1.0000     1.0000 C.2          1    LIG   0.0000
  11 N11          2.3700     1.0000     1.0000 N.pl3        1    LIG   0.0000
  12 C12          3.1050     2.2731     1.0000 C.3          1    LIG   0.0000
  13 C13          2.7378     3.0701    -0.2411 C.2          1    LIG   0.0000
  14 O14          3.2327     4.1467    -0.4310 O.2          1    LIG   0.0000
  15 N15          1.8418     2.5594    -1.1429 N.am         1    LIG   0.0000
  16 C16          1.5033     3.2941    -2.2867 C.ar         1    LIG   0.0000
  17 C17          1.7666     2.7243    -3.5275 C.ar         1    LIG   0.0000
  18 C18          1.4551     3.4026    -4.7010 C.ar         1    LIG   0.0000
  19 C19          0.8746     4.6640    -4.6216 C.ar         1    LIG   0.0000
  20 C20          0.6119     5.2314    -3.3787 C.ar         1    LIG   0.0000
  21 C21          0.0319     6.4936    -3.3098 C.ar         1    LIG   0.0000
  22 C22         -0.2298     7.0616    -2.0675 C.ar         1    LIG   0.0000
  23 C23          0.0973     6.3503    -0.9180 C.ar         1    LIG   0.0000
  24 N24          0.6563     5.1355    -1.0177 N.ar         1    LIG   0.0000
  25 C25          0.9218     4.5562    -2.1999 C.ar         1    LIG   0.0000
  26 C26         -1.1044    -0.2154     1.1980 C.ar         1    LIG   0.0000
  27 C27         -1.8002     0.9622     1.4543 C.ar         1    LIG   0.0000
  28 C28         -3.1752     0.9207     1.6389 C.ar         1    LIG   0.0000
  29 C29         -3.8565    -0.2891     1.5674 C.ar         1    LIG   0.0000
  30 C30         -3.1580    -1.4635     1.3138 C.ar         1    LIG   0.0000
  31 C31         -1.7794    -1.4355     1.1336 C.ar         1    LIG   0.0000
  32 C32         -1.0314    -2.6488     0.8608 C.2          1    LIG   0.0000
  33 O33         -1.5758    -3.7399     0.7711 O.2          1    LIG   0.0000
  34 C34          2.4626    -3.7055     0.2841 C.ar         1    LIG   0.0000
  35 C35          3.1735    -4.8756     0.0388 C.ar         1    LIG   0.0000
  36 C36          4.6813    -4.7888    -0.1368 C.3          1    LIG   0.0000
  37 H            2.5973    -8.1508    -0.3284 H            1    LIG   0.0000
  38 H            3.7183    -7.3318    -1.1881 H            1    LIG   0.0000
  39 H            3.9181    -7.5470     0.4183 H            1    LIG   0.0000
  40 H            0.6464    -7.0166     0.0656 H            1    LIG   0.0000
  41 H           -0.5904    -5.0100     0.4884 H            1    LIG   0.0000
  42 H            0.5000     1.8660     1.0000 H            1    LIG   0.0000
  43 H            2.8700     0.1340     1.0000 H            1    LIG   0.0000
  44 H            4.0882     2.0903     1.0000 H            1    LIG   0.0000
  45 H            2.8634     2.7974     1.8165 H            1    LIG   0.0000
  46 H            1.4293     1.6623    -0.9846 H            1    LIG   0.0000
  47 H            2.1843     1.8171    -3.5765 H            1    LIG   0.0000
  48 H            1.6461     2.9884    -5.5909 H            1    LIG   0.0000
  49 H            0.6462     5.1629    -5.4576 H            1    LIG   0.0000
  50 H           -0.1956     6.9894    -4.1479 H            1    LIG   0.0000
  51 H           -0.6469     7.9681    -2.0018 H            1    LIG   0.0000
  52 H           -0.0845     6.7447    -0.0172 H            1    LIG   0.0000
  53 H           -1.3123     1.8335     1.5053 H            1    LIG   0.0000
  54 H           -3.6782     1.7649     1.8241 H            1    LIG   0.0000
  55 H           -4.8476    -0.3142     1.6982 H            1    LIG   0.0000
  56 H           -3.6492    -2.3330     1.2607 H            1    LIG   0.0000
  57 H            2.9395    -2.8285     0.3424 H            1    LIG   0.0000
  58 H            4.9732    -3.8367    -0.0456 H            1    LIG   0.0000
  59 H            5.1309    -5.3439     0.5630 H            1    LIG   0.0000
  60 H            4.9314    -5.1288    -1.0434 H            1    LIG   0.0000
@<TRIPOS>BOND
   1        1        2 1
   2        2        3 ar
   3        3        4 ar
   4        4        5 ar
   5        5        6 1
   6        6        7 am
   7        7        8 2
   8        7        9 1
   9        9       10 2
  10       10       11 1
  11       11       12 1
  12       12       13 1
  13       13       14 2
  14       13       15 am
  15       15       16 1
  16       16       17 ar
  17       17       18 ar
  18       18       19 ar
  19       19       20 ar
  20       20       21 ar
  21       21       22 ar
  22       22       23 ar
  23       23       24 ar
  24       24       25 ar
  25       25       16 ar
  26       25       20 ar
  27        9       26 1
  28       26       27 ar
  29       27       28 ar
  30       28       29 ar
  31       29       30 ar
  32       30       31 ar
  33       31       26 ar
  34       31       32 1
  35       32        6 am
  36       32       33 2
  37        5       34 ar
  38       34       35 ar
  39       35        2 ar
  40       35       36 1
  41        1       37 1
  42        1       38 1
  43        1       39 1
  44        3       40 1
  45        4       41 1
  46       10       42 1
  47       11       43 1
  48       12       44 1
  49       12       45 1
  50       15       46 1
  51       17       47 1
  52       18       48 1
  53       19       49 1
  54       21       50 1
  55       22       51 1
  56       23       52 1
  57       27       53 1
  58       28       54 1
  59       29       55 1
  60       30       56 1
  61       34       57 1
  62       36       58 1
  63       36       59 1
  64       36       60 1

@<TRIPOS>MOLECULE

  60   64
SMALL
USER_CHARGES
@<TRIPOS>ATOM
   1 C1           3.3326    -7.3327    -0.3411 C.3          1    LIG   0.0000
   2 C2           2.5175    -6.0835    -0.0476 C.ar         1    LIG   0.0000
   3 C3           2.9634    -4.8655    -0.5492 C.ar         1    LIG   0.0000
   4 C4           2.2493    -3.6970    -0.3056 C.ar         1    LIG   0.0000
   5 C5           1.0822    -3.7657     0.4478 C.ar         1    LIG   0.0000
   6 N6           0.3600    -2.5924     0.6953 N.am         1    LIG   0.0000
   7 C7           1.0562    -1.3826     0.7665 C.2          1    LIG   0.0000
   8 O8           2.2690    -1.3392     0.6287 O.2          1    LIG   0.0000
   9 C9           0.3371    -0.1482     1.0000 C.2          1    LIG   0.0000
  10 C10          1.0000     1.0000     1.0000 C.2          1    LIG   0.0000
  11 N11          2.3700     1.0000     1.0000 N.pl3        1    LIG   0.0000
  12 C12          3.1050     2.2731     1.0000 C.3          1    LIG   0.0000
  13 C13          2.7378     3.0701    -0.2411 C.2          1    LIG   0.0000
  14 O14          3.2327     4.1467    -0.4310 O.2          1    LIG   0.0000
  15 N15          1.8418     2.5594    -1.1429 N.am         1    LIG   0.0000
  16 C16          1.8073     3.0543    -2.4530 C.ar         1    LIG   0.0000
  17 C17          0.6217     3.6256    -2.9019 C.ar         1    LIG   0.0000
  18 C18          0.5225     4.1344    -4.1924 C.ar         1    LIG   0.0000
  19 C19          1.6267     4.0659    -5.0352 C.ar         1    LIG   0.0000
  20 C20          2.8119     3.4942    -4.5833 C.ar         1    LIG   0.0000
  21 C21          3.9104     3.4298    -5.4338 C.ar         1    LIG   0.0000
  22 C22          5.0949     2.8572    -4.9827 C.ar         1    LIG   0.0000
  23 C23          5.1525     2.3597    -3.6852 C.ar         1    LIG   0.0000
  24 N24          4.0759     2.4362    -2.8895 N.ar         1    LIG   0.0000
  25 C25          2.9168     2.9830    -3.2913 C.ar         1    LIG   0.0000
  26 C26         -1.1044    -0.2154     1.1980 C.ar         1    LIG   0.0000
  27 C27         -1.8002     0.9622     1.4543 C.ar         1    LIG   0.0000
  28 C28         -3.1752     0.9207     1.6389 C.ar         1    LIG   0.0000
  29 C29         -3.8565    -0.2891     1.5674 C.ar         1    LIG   0.0000
  30 C30         -3.1580    -1.4635     1.3138 C.ar         1    LIG   0.0000
  31 C31         -1.7794    -1.4355     1.1336 C.ar         1    LIG   0.0000
  32 C32         -1.0314    -2.6488     0.8608 C.2          1    LIG   0.0000
  33 O33         -1.5758    -3.7399     0.7711 O.2          1    LIG   0.0000
  34 C34          0.6254    -4.9779     0.9557 C.ar         1    LIG   0.0000
  35 C35          1.3481    -6.1397     0.7055 C.ar         1    LIG   0.0000
  36 C36          0.8323    -7.4543     1.2690 C.3          1    LIG   0.0000
  37 H            4.1306    -7.0882    -0.8919 H            1    LIG   0.0000
  38 H            3.6346    -7.7434     0.5192 H            1    LIG   0.0000
  39 H            2.7688    -7.9882    -0.8436 H            1    LIG   0.0000
  40 H            3.8041    -4.8295    -1.0895 H            1    LIG   0.0000
  41 H            2.5700    -2.8213    -0.6664 H            1    LIG   0.0000
  42 H            0.5000     1.8660     1.0000 H            1    LIG   0.0000
  43 H            2.8700     0.1340     1.0000 H            1    LIG   0.0000
  44 H            4.0882     2.0903     1.0000 H            1    LIG   0.0000
  45 H            2.8634     2.7974     1.8165 H            1    LIG   0.0000
  46 H            1.2123     1.8334    -0.8659 H            1    LIG   0.0000
  47 H           -0.1680     3.6710    -2.2902 H            1    LIG   0.0000
  48 H           -0.3323     4.5445    -4.5104 H            1    LIG   0.0000
  49 H            1.5688     4.4274    -5.9658 H            1    LIG   0.0000
  50 H            3.8489     3.7927    -6.3636 H            1    LIG   0.0000
  51 H            5.8933     2.8041    -5.5824 H            1    LIG   0.0000
  52 H            5.9968     1.9451    -3.3457 H            1    LIG   0.0000
  53 H           -1.3123     1.8335     1.5053 H            1    LIG   0.0000
  54 H           -3.6782     1.7649     1.8241 H            1    LIG   0.0000
  55 H           -4.8476    -0.3142     1.6982 H            1    LIG   0.0000
  56 H           -3.6492    -2.3330     1.2607 H            1    LIG   0.0000
  57 H           -0.2152    -5.0135     1.4961 H            1    LIG   0.0000
  58 H           -0.0134    -7.2902     1.7768 H            1    LIG   0.0000
  59 H            0.6526    -8.0908     0.5190 H            1    LIG   0.0000
  60 H            1.5184    -7.8463     1.8818 H            1    LIG   0.0000
@<TRIPOS>BOND
   1        1        2 1
   2        2        3 ar
   3        3        4 ar
   4        4        5 ar
   5        5        6 1
   6        6        7 am
   7        7        8 2
   8        7        9 1
   9        9       10 2
  10       10       11 1
  11       11       12 1
  12       12       13 1
  13       13       14 2
  14       13       15 am
  15       15       16 1
  16       16       17 ar
  17       17       18 ar
  18       18       19 ar
  19       19       20 ar
  20       20       21 ar
  21       21       22 ar
  22       22       23 ar
  23       23       24 ar
  24       24       25 ar
  25       25       16 ar
  26       25       20 ar
  27        9       26 1
  28       26       27 ar
  29       27       28 ar
  30       28       29 ar
  31       29       30 ar
  32       30       31 ar
  33       31       26 ar
  34       31       32 1
  35       32        6 am
  36       32       33 2
  37        5       34 ar
  38       34       35 ar
  39       35        2 ar
  40       35       36 1
  41        1       37 1
  42        1       38 1
  43        1       39 1
  44        3       40 1
  45        4       41 1
  46       10       42 1
  47       11       43 1
  48       12       44 1
  49       12       45 1
  50       15       46 1
  51       17       47 1
  52       18       48 1
  53       19       49 1
  54       21       50 1
  55       22       51 1
  56       23       52 1
  57       27       53 1
  58       28       54 1
  59       29       55 1
  60       30       56 1
  61       34       57 1
  62       36       58 1
  63       36       59 1
  64       36       60 1

@<TRIPOS>MOLECULE

  60   64
SMALL
USER_CHARGES
@<TRIPOS>ATOM
   1 C1           3.3034    -7.3687    -0.2556 C.3          1    LIG   0.0000
   2 C2           2.5133    -6.0892    -0.0329 C.ar         1    LIG   0.0000
   3 C3           2.2977    -5.6594     1.2719 C.ar         1    LIG   0.0000
   4 C4           1.5804    -4.4943     1.5227 C.ar         1    LIG   0.0000
   5 C5           1.0822    -3.7657     0.4478 C.ar         1    LIG   0.0000
   6 N6           0.3600    -2.5924     0.6953 N.am         1    LIG   0.0000
   7 C7           1.0562    -1.3826     0.7665 C.2          1    LIG   0.0000
   8 O8           2.2690    -1.3392     0.6287 O.2          1    LIG   0.0000
   9 C9           0.3371    -0.1482     1.0000 C.2          1    LIG   0.0000
  10 C10          1.0000     1.0000     1.0000 C.2          1    LIG   0.0000
  11 N11          2.3700     1.0000     1.0000 N.pl3        1    LIG   0.0000
  12 C12          3.1050     2.2731     1.0000 C.3          1    LIG   0.0000
  13 C13          3.9789     2.3536    -0.2411 C.2          1    LIG   0.0000
  14 O14          3.9839     1.4502    -1.0310 O.2          1    LIG   0.0000
  15 N15          4.7607     3.4575    -0.4579 N.am         1    LIG   0.0000
  16 C16          5.5662     3.5317    -1.6017 C.ar         1    LIG   0.0000
  17 C17          6.1830     2.3652    -2.0400 C.ar         1    LIG   0.0000
  18 C18          6.9957     2.3723    -3.1686 C.ar         1    LIG   0.0000
  19 C19          7.1874     3.5645    -3.8588 C.ar         1    LIG   0.0000
  20 C20          6.5685     4.7301    -3.4182 C.ar         1    LIG   0.0000
  21 C21          6.7669     5.9174    -4.1147 C.ar         1    LIG   0.0000
  22 C22          6.1494     7.0830    -3.6739 C.ar         1    LIG   0.0000
  23 C23          5.3446     7.0332    -2.5406 C.ar         1    LIG   0.0000
  24 N24          5.1736     5.8729    -1.8904 N.ar         1    LIG   0.0000
  25 C25          5.7532     4.7285    -2.2883 C.ar         1    LIG   0.0000
  26 C26         -1.1044    -0.2154     1.1980 C.ar         1    LIG   0.0000
  27 C27         -1.8002     0.9622     1.4543 C.ar         1    LIG   0.0000
  28 C28         -3.1752     0.9207     1.6389 C.ar         1    LIG   0.0000
  29 C29         -3.8565    -0.2891     1.5674 C.ar         1    LIG   0.0000
  30 C30         -3.1580    -1.4635     1.3138 C.ar         1    LIG   0.0000
  31 C31         -1.7794    -1.4355     1.1336 C.ar         1    LIG   0.0000
  32 C32         -1.0314    -2.6488     0.8608 C.2          1    LIG   0.0000
  33 O33         -1.5758    -3.7399     0.7711 O.2          1    LIG   0.0000
  34 C34          1.2906    -4.1850    -0.8624 C.ar         1    LIG   0.0000
  35 C35          2.0094    -5.3517    -1.1007 C.ar         1    LIG   0.0000
  36 C36          2.2266    -5.7928    -2.5394 C.3          1    LIG   0.0000
  37 H            3.5771    -7.7495     0.6277 H            1    LIG   0.0000
  38 H            2.7343    -8.0315    -0.7423 H            1    LIG   0.0000
  39 H            4.1185    -7.1670    -0.7986 H            1    LIG   0.0000
  40 H            2.6612    -6.1922     2.0361 H            1    LIG   0.0000
  41 H            1.4254    -4.1854     2.4611 H            1    LIG   0.0000
  42 H            0.5000     1.8660     1.0000 H            1    LIG   0.0000
  43 H            2.8700     0.1340     1.0000 H            1    LIG   0.0000
  44 H            3.6799     2.3260     1.8165 H            1    LIG   0.0000
  45 H            2.4552     3.0331     1.0000 H            1    LIG   0.0000
  46 H            4.7565     4.2103     0.2004 H            1    LIG   0.0000
  47 H            6.0407     1.5119    -1.5384 H            1    LIG   0.0000
  48 H            7.4369     1.5306    -3.4800 H            1    LIG   0.0000
  49 H            7.7698     3.5839    -4.6714 H            1    LIG   0.0000
  50 H            7.3496     5.9329    -4.9273 H            1    LIG   0.0000
  51 H            6.2821     7.9443    -4.1644 H            1    LIG   0.0000
  52 H            4.8935     7.8624    -2.2108 H            1    LIG   0.0000
  53 H           -1.3123     1.8335     1.5053 H            1    LIG   0.0000
  54 H           -3.6782     1.7649     1.8241 H            1    LIG   0.0000
  55 H           -4.8476    -0.3142     1.6982 H            1    LIG   0.0000
  56 H           -3.6492    -2.3330     1.2607 H            1    LIG   0.0000
  57 H            0.9268    -3.6520    -1.6263 H            1    LIG   0.0000
  58 H            1.7924    -5.1379    -3.1580 H            1    LIG   0.0000
  59 H            3.2072    -5.8329    -2.7313 H            1    LIG   0.0000
  60 H            1.8230    -6.6976    -2.6752 H            1    LIG   0.0000
@<TRIPOS>BOND
   1        1        2 1
   2        2        3 ar
   3        3        4 ar
   4        4        5 ar
   5        5        6 1
   6        6        7 am
   7        7        8 2
   8        7        9 1
   9        9       10 2
  10       10       11 1
  11       11       12 1
  12       12       13 1
  13       13       14 2
  14       13       15 am
  15       15       16 1
  16       16       17 ar
  17       17       18 ar
  18       18       19 ar
  19       19       20 ar
  20       20       21 ar
  21       21       22 ar
  22       22       23 ar
  23       23       24 ar
  24       24       25 ar
  25       25       16 ar
  26       25       20 ar
  27        9       26 1
  28       26       27 ar
  29       27       28 ar
  30       28       29 ar
  31       29       30 ar
  32       30       31 ar
  33       31       26 ar
  34       31       32 1
  35       32        6 am
  36       32       33 2
  37        5       34 ar
  38       34       35 ar
  39       35        2 ar
  40       35       36 1
  41        1       37 1
  42        1       38 1
  43        1       39 1
  44        3       40 1
  45        4       41 1
  46       10       42 1
  47       11       43 1
  48       12       44 1
  49       12       45 1
  50       15       46 1
  51       17       47 1
  52       18       48 1
  53       19       49 1
  54       21       50 1
  55       22       51 1
  56       23       52 1
  57       27       53 1
  58       28       54 1
  59       29       55 1
  60       30       56 1
  61       34       57 1
  62       36       58 1
  63       36       59 1
  64       36       60 1

