@<TRIPOS>MOLECULE
*****
 60 64 0 0 0
SMALL
USER_CHARGES

@<TRIPOS>ATOM
      1 C1          3.2584   -7.3912   -0.2805 C.3     1  LIG1        0.0000
      2 C2          2.5057   -6.0931   -0.0366 C.3     1  LIG1        0.0000
      3 C3          1.3353   -6.1339    0.7133 C.3     1  LIG1        0.0000
      4 C4          0.6143   -4.9706    0.9615 C.3     1  LIG1        0.0000
      5 C5          1.0822   -3.7657    0.4478 C.3     1  LIG1        0.0000
      6 N6          0.3600   -2.5924    0.6953 N.am    1  LIG1        0.0000
      7 C7          1.0562   -1.3826    0.7665 C.2     1  LIG1        0.0000
      8 O8          2.2690   -1.3392    0.6287 O.2     1  LIG1        0.0000
      9 C9          0.3371   -0.1482    1.0000 C.2     1  LIG1        0.0000
     10 C10         1.0000    1.0000    1.0000 C.2     1  LIG1        0.0000
     11 N11         2.3700    1.0000    1.0000 N.pl3   1  LIG1        0.0000
     12 C12         3.1050    2.2731    1.0000 C.3     1  LIG1        0.0000
     13 C13         2.7378    3.0701   -0.2411 C.2     1  LIG1        0.0000
     14 O14         3.2327    4.1467   -0.4310 O.2     1  LIG1        0.0000
     15 N15         1.8418    2.5594   -1.1429 N.am    1  LIG1        0.0000
     16 C16         1.5033    3.2941   -2.2867 C.3     1  LIG1        0.0000
     17 C17         2.3151    4.3682   -2.6340 C.3     1  LIG1        0.0000
     18 C18         2.0328    5.1378   -3.7575 C.3     1  LIG1        0.0000
     19 C19         0.9239    4.8214   -4.5351 C.3     1  LIG1        0.0000
     20 C20         0.1136    3.7457   -4.1855 C.3     1  LIG1        0.0000
     21 C21        -0.9934    3.4377   -4.9690 C.3     1  LIG1        0.0000
     22 C22        -1.8042    2.3633   -4.6191 C.3     1  LIG1        0.0000
     23 C23        -1.4872    1.6191   -3.4877 C.3     1  LIG1        0.0000
     24 N24        -0.4133    1.9418   -2.7523 N.pl3   1  LIG1        0.0000
     25 C25         0.3920    2.9714   -3.0610 C.3     1  LIG1        0.0000
     26 C26        -1.1044   -0.2154    1.1980 C.3     1  LIG1        0.0000
     27 C27        -1.8002    0.9622    1.4543 C.3     1  LIG1        0.0000
     28 C28        -3.1752    0.9207    1.6389 C.3     1  LIG1        0.0000
     29 C29        -3.8565   -0.2891    1.5674 C.3     1  LIG1        0.0000
     30 C30        -3.1580   -1.4635    1.3138 C.3     1  LIG1        0.0000
     31 C31        -1.7794   -1.4355    1.1336 C.3     1  LIG1        0.0000
     32 C32        -1.0314   -2.6488    0.8608 C.2     1  LIG1        0.0000
     33 O33        -1.5758   -3.7399    0.7711 O.2     1  LIG1        0.0000
     34 C34         2.2514   -3.7113   -0.3044 C.3     1  LIG1        0.0000
     35 C35         2.9639   -4.8813   -0.5460 C.3     1  LIG1        0.0000
     36 C36         4.2392   -4.8008   -1.3698 C.3     1  LIG1        0.0000
     37 H           2.7742   -8.1456    0.1629 H       1  LIG1        0.0000
     38 H           3.3154   -7.5638   -1.2638 H       1  LIG1        0.0000
     39 H           4.1806   -7.3181    0.0992 H       1  LIG1        0.0000
     40 H           1.0095   -7.0065    1.0771 H       1  LIG1        0.0000
     41 H          -0.2273   -5.0001    1.5008 H       1  LIG1        0.0000
     42 H           0.5000    1.8660    1.0000 H       1  LIG1        0.0000
     43 H           2.8700    0.1340    1.0000 H       1  LIG1        0.0000
     44 H           4.0882    2.0903    1.0000 H       1  LIG1        0.0000
     45 H           2.8634    2.7974    1.8165 H       1  LIG1        0.0000
     46 H           1.4293    1.6623   -0.9846 H       1  LIG1        0.0000
     47 H           3.1105    4.5897   -2.0699 H       1  LIG1        0.0000
     48 H           2.6198    5.9091   -4.0033 H       1  LIG1        0.0000
     49 H           0.7090    5.3669   -5.3452 H       1  LIG1        0.0000
     50 H          -1.2049    3.9851   -5.7787 H       1  LIG1        0.0000
     51 H          -2.6034    2.1292   -5.1728 H       1  LIG1        0.0000
     52 H          -2.0601    0.8435   -3.2226 H       1  LIG1        0.0000
     53 H          -1.3123    1.8335    1.5053 H       1  LIG1        0.0000
     54 H          -3.6782    1.7649    1.8241 H       1  LIG1        0.0000
     55 H          -4.8476   -0.3142    1.6982 H       1  LIG1        0.0000
     56 H          -3.6492   -2.3330    1.2607 H       1  LIG1        0.0000
     57 H           2.5768   -2.8385   -0.6682 H       1  LIG1        0.0000
     58 H           4.4003   -3.8524   -1.6430 H       1  LIG1        0.0000
     59 H           5.0106   -5.1256   -0.8225 H       1  LIG1        0.0000
     60 H           4.1456   -5.3714   -2.1856 H       1  LIG1        0.0000
@<TRIPOS>BOND
     1     1     2    1
     2     2     3   ar
     3     3     4   ar
     4     4     5   ar
     5     5     6    1
     6     6     7   am
     7     7     8    2
     8     7     9    1
     9     9    10    2
    10    10    11    1
    11    11    12    1
    12    12    13    1
    13    13    14    2
    14    13    15   am
    15    15    16    1
    16    16    17   ar
    17    17    18   ar
    18    18    19   ar
    19    19    20   ar
    20    20    21   ar
    21    21    22   ar
    22    22    23   ar
    23    23    24   ar
    24    24    25   ar
    25    25    16   ar
    26    25    20   ar
    27     9    26    1
    28    26    27   ar
    29    27    28   ar
    30    28    29   ar
    31    29    30   ar
    32    30    31   ar
    33    31    26   ar
    34    31    32    1
    35    32     6   am
    36    32    33    2
    37     5    34   ar
    38    34    35   ar
    39    35     2   ar
    40    35    36    1
    41     1    37    1
    42     1    38    1
    43     1    39    1
    44     3    40    1
    45     4    41    1
    46    10    42    1
    47    11    43    1
    48    12    44    1
    49    12    45    1
    50    15    46    1
    51    17    47    1
    52    18    48    1
    53    19    49    1
    54    21    50    1
    55    22    51    1
    56    23    52    1
    57    27    53    1
    58    28    54    1
    59    29    55    1
    60    30    56    1
    61    34    57    1
    62    36    58    1
    63    36    59    1
    64    36    60    1
