@<TRIPOS>MOLECULE
*****
 60 64 0 0 0
SMALL
USER_CHARGES

@<TRIPOS>ATOM
      1 C1          3.3034   -7.3687   -0.2556 C.3     1  LIG1        0.0000
      2 C2          2.5133   -6.0892   -0.0329 C.3     1  LIG1        0.0000
      3 C3          2.2977   -5.6594    1.2719 C.3     1  LIG1        0.0000
      4 C4          1.5804   -4.4943    1.5227 C.3     1  LIG1        0.0000
      5 C5          1.0822   -3.7657    0.4478 C.3     1  LIG1        0.0000
      6 N6          0.3600   -2.5924    0.6953 N.am    1  LIG1        0.0000
      7 C7          1.0562   -1.3826    0.7665 C.2     1  LIG1        0.0000
      8 O8          2.2690   -1.3392    0.6287 O.2     1  LIG1        0.0000
      9 C9          0.3371   -0.1482    1.0000 C.2     1  LIG1        0.0000
     10 C10         1.0000    1.0000    1.0000 C.2     1  LIG1        0.0000
     11 N11         2.3700    1.0000    1.0000 N.pl3   1  LIG1        0.0000
     12 C12         3.1050    2.2731    1.0000 C.3     1  LIG1        0.0000
     13 C13         3.9789    2.3536   -0.2411 C.2     1  LIG1        0.0000
     14 O14         3.9839    1.4502   -1.0310 O.2     1  LIG1        0.0000
     15 N15         4.7607    3.4575   -0.4579 N.am    1  LIG1        0.0000
     16 C16         5.5662    3.5317   -1.6017 C.3     1  LIG1        0.0000
     17 C17         6.1830    2.3652   -2.0400 C.3     1  LIG1        0.0000
     18 C18         6.9957    2.3723   -3.1686 C.3     1  LIG1        0.0000
     19 C19         7.1874    3.5645   -3.8588 C.3     1  LIG1        0.0000
     20 C20         6.5685    4.7301   -3.4182 C.3     1  LIG1        0.0000
     21 C21         6.7669    5.9174   -4.1147 C.3     1  LIG1        0.0000
     22 C22         6.1494    7.0830   -3.6739 C.3     1  LIG1        0.0000
     23 C23         5.3446    7.0332   -2.5406 C.3     1  LIG1        0.0000
     24 N24         5.1736    5.8729   -1.8904 N.pl3   1  LIG1        0.0000
     25 C25         5.7532    4.7285   -2.2883 C.3     1  LIG1        0.0000
     26 C26        -1.1044   -0.2154    1.1980 C.3     1  LIG1        0.0000
     27 C27        -1.8002    0.9622    1.4543 C.3     1  LIG1        0.0000
     28 C28        -3.1752    0.9207    1.6389 C.3     1  LIG1        0.0000
     29 C29        -3.8565   -0.2891    1.5674 C.3     1  LIG1        0.0000
     30 C30        -3.1580   -1.4635    1.3138 C.3     1  LIG1        0.0000
     31 C31        -1.7794   -1.4355    1.1336 C.3     1  LIG1        0.0000
     32 C32        -1.0314   -2.6488    0.8608 C.2     1  LIG1        0.0000
     33 O33        -1.5758   -3.7399    0.7711 O.2     1  LIG1        0.0000
     34 C34         1.2906   -4.1850   -0.8624 C.3     1  LIG1        0.0000
     35 C35         2.0094   -5.3517   -1.1007 C.3     1  LIG1        0.0000
     36 C36         2.2266   -5.7928   -2.5394 C.3     1  LIG1        0.0000
     37 H           3.5771   -7.7495    0.6277 H       1  LIG1        0.0000
     38 H           2.7343   -8.0315   -0.7423 H       1  LIG1        0.0000
     39 H           4.1185   -7.1670   -0.7986 H       1  LIG1        0.0000
     40 H           2.6612   -6.1922    2.0361 H       1  LIG1        0.0000
     41 H           1.4254   -4.1854    2.4611 H       1  LIG1        0.0000
     42 H           0.5000    1.8660    1.0000 H       1  LIG1        0.0000
     43 H           2.8700    0.1340    1.0000 H       1  LIG1        0.0000
     44 H           3.6799    2.3260    1.8165 H       1  LIG1        0.0000
     45 H           2.4552    3.0331    1.0000 H       1  LIG1        0.0000
     46 H           4.7565    4.2103    0.2004 H       1  LIG1        0.0000
     47 H           6.0407    1.5119   -1.5384 H       1  LIG1        0.0000
     48 H           7.4369    1.5306   -3.4800 H       1  LIG1        0.0000
     49 H           7.7698    3.5839   -4.6714 H       1  LIG1        0.0000
     50 H           7.3496    5.9329   -4.9273 H       1  LIG1        0.0000
     51 H           6.2821    7.9443   -4.1644 H       1  LIG1        0.0000
     52 H           4.8935    7.8624   -2.2108 H       1  LIG1        0.0000
     53 H          -1.3123    1.8335    1.5053 H       1  LIG1        0.0000
     54 H          -3.6782    1.7649    1.8241 H       1  LIG1        0.0000
     55 H          -4.8476   -0.3142    1.6982 H       1  LIG1        0.0000
     56 H          -3.6492   -2.3330    1.2607 H       1  LIG1        0.0000
     57 H           0.9268   -3.6520   -1.6263 H       1  LIG1        0.0000
     58 H           1.7924   -5.1379   -3.1580 H       1  LIG1        0.0000
     59 H           3.2072   -5.8329   -2.7313 H       1  LIG1        0.0000
     60 H           1.8230   -6.6976   -2.6752 H       1  LIG1        0.0000
@<TRIPOS>BOND
     1     1     2    1
     2     2     3   ar
     3     3     4   ar
     4     4     5   ar
     5     5     6    1
     6     6     7   am
     7     7     8    2
     8     7     9    1
     9     9    10    2
    10    10    11    1
    11    11    12    1
    12    12    13    1
    13    13    14    2
    14    13    15   am
    15    15    16    1
    16    16    17   ar
    17    17    18   ar
    18    18    19   ar
    19    19    20   ar
    20    20    21   ar
    21    21    22   ar
    22    22    23   ar
    23    23    24   ar
    24    24    25   ar
    25    25    16   ar
    26    25    20   ar
    27     9    26    1
    28    26    27   ar
    29    27    28   ar
    30    28    29   ar
    31    29    30   ar
    32    30    31   ar
    33    31    26   ar
    34    31    32    1
    35    32     6   am
    36    32    33    2
    37     5    34   ar
    38    34    35   ar
    39    35     2   ar
    40    35    36    1
    41     1    37    1
    42     1    38    1
    43     1    39    1
    44     3    40    1
    45     4    41    1
    46    10    42    1
    47    11    43    1
    48    12    44    1
    49    12    45    1
    50    15    46    1
    51    17    47    1
    52    18    48    1
    53    19    49    1
    54    21    50    1
    55    22    51    1
    56    23    52    1
    57    27    53    1
    58    28    54    1
    59    29    55    1
    60    30    56    1
    61    34    57    1
    62    36    58    1
    63    36    59    1
    64    36    60    1
