@<TRIPOS>MOLECULE
*****
 60 64 0 0 0
SMALL
USER_CHARGES

@<TRIPOS>ATOM
      1 C1          3.3405   -7.3395   -0.2859 C.3     1  LIG1        0.0000
      2 C2          2.5193   -6.0843   -0.0384 C.3     1  LIG1        0.0000
      3 C3          3.1117   -5.0252    0.6407 C.3     1  LIG1        0.0000
      4 C4          2.3979   -3.8575    0.8891 C.3     1  LIG1        0.0000
      5 C5          1.0822   -3.7657    0.4478 C.3     1  LIG1        0.0000
      6 N6          0.3600   -2.5924    0.6953 N.am    1  LIG1        0.0000
      7 C7          1.0562   -1.3826    0.7665 C.2     1  LIG1        0.0000
      8 O8          2.2690   -1.3392    0.6287 O.2     1  LIG1        0.0000
      9 C9          0.3371   -0.1482    1.0000 C.2     1  LIG1        0.0000
     10 C10         1.0000    1.0000    1.0000 C.2     1  LIG1        0.0000
     11 N11         2.3700    1.0000    1.0000 N.pl3   1  LIG1        0.0000
     12 C12         3.1050    2.2731    1.0000 C.3     1  LIG1        0.0000
     13 C13         2.7378    3.0701   -0.2411 C.2     1  LIG1        0.0000
     14 O14         1.9529    2.6228   -1.0310 O.2     1  LIG1        0.0000
     15 N15         3.3029    4.2992   -0.4579 N.am    1  LIG1        0.0000
     16 C16         2.5935    5.2822   -1.1600 C.3     1  LIG1        0.0000
     17 C17         3.1526    5.7744   -2.3341 C.3     1  LIG1        0.0000
     18 C18         2.4990    6.7517   -3.0769 C.3     1  LIG1        0.0000
     19 C19         1.2734    7.2356   -2.6316 C.3     1  LIG1        0.0000
     20 C20         0.7161    6.7410   -1.4566 C.3     1  LIG1        0.0000
     21 C21        -0.5095    7.2316   -1.0192 C.3     1  LIG1        0.0000
     22 C22        -1.0663    6.7382    0.1559 C.3     1  LIG1        0.0000
     23 C23        -0.3802    5.7613    0.8694 C.3     1  LIG1        0.0000
     24 N24         0.8001    5.3090    0.4218 N.pl3   1  LIG1        0.0000
     25 C25         1.3667    5.7617   -0.7087 C.3     1  LIG1        0.0000
     26 C26        -1.1044   -0.2154    1.1980 C.3     1  LIG1        0.0000
     27 C27        -1.8002    0.9622    1.4543 C.3     1  LIG1        0.0000
     28 C28        -3.1752    0.9207    1.6389 C.3     1  LIG1        0.0000
     29 C29        -3.8565   -0.2891    1.5674 C.3     1  LIG1        0.0000
     30 C30        -3.1580   -1.4635    1.3138 C.3     1  LIG1        0.0000
     31 C31        -1.7794   -1.4355    1.1336 C.3     1  LIG1        0.0000
     32 C32        -1.0314   -2.6488    0.8608 C.2     1  LIG1        0.0000
     33 O33        -1.5758   -3.7399    0.7711 O.2     1  LIG1        0.0000
     34 C34         0.4776   -4.8182   -0.2324 C.3     1  LIG1        0.0000
     35 C35         1.2015   -5.9810   -0.4750 C.3     1  LIG1        0.0000
     36 C36         0.5231   -7.1195   -1.2200 C.3     1  LIG1        0.0000
     37 H           4.2553   -7.2208    0.1003 H       1  LIG1        0.0000
     38 H           2.8939   -8.1213    0.1492 H       1  LIG1        0.0000
     39 H           3.4127   -7.5020   -1.2700 H       1  LIG1        0.0000
     40 H           4.0585   -5.1037    0.9528 H       1  LIG1        0.0000
     41 H           2.8241   -3.0960    1.3775 H       1  LIG1        0.0000
     42 H           0.5000    1.8660    1.0000 H       1  LIG1        0.0000
     43 H           2.8700    0.1340    1.0000 H       1  LIG1        0.0000
     44 H           4.0882    2.0903    1.0000 H       1  LIG1        0.0000
     45 H           2.8634    2.7974    1.8165 H       1  LIG1        0.0000
     46 H           4.2217    4.4946   -0.1149 H       1  LIG1        0.0000
     47 H           4.0343    5.4218   -2.6478 H       1  LIG1        0.0000
     48 H           2.9051    7.1023   -3.9208 H       1  LIG1        0.0000
     49 H           0.7930    7.9388   -3.1557 H       1  LIG1        0.0000
     50 H          -0.9873    7.9345   -1.5462 H       1  LIG1        0.0000
     51 H          -1.9471    7.0809    0.4829 H       1  LIG1        0.0000
     52 H          -0.7670    5.3961    1.7162 H       1  LIG1        0.0000
     53 H          -1.3123    1.8335    1.5053 H       1  LIG1        0.0000
     54 H          -3.6782    1.7649    1.8241 H       1  LIG1        0.0000
     55 H          -4.8476   -0.3142    1.6982 H       1  LIG1        0.0000
     56 H          -3.6492   -2.3330    1.2607 H       1  LIG1        0.0000
     57 H          -0.4693   -4.7394   -0.5442 H       1  LIG1        0.0000
     58 H          -0.4144   -6.8568   -1.4480 H       1  LIG1        0.0000
     59 H           1.0282   -7.3155   -2.0606 H       1  LIG1        0.0000
     60 H           0.5094   -7.9351   -0.6415 H       1  LIG1        0.0000
@<TRIPOS>BOND
     1     1     2    1
     2     2     3   ar
     3     3     4   ar
     4     4     5   ar
     5     5     6    1
     6     6     7   am
     7     7     8    2
     8     7     9    1
     9     9    10    2
    10    10    11    1
    11    11    12    1
    12    12    13    1
    13    13    14    2
    14    13    15   am
    15    15    16    1
    16    16    17   ar
    17    17    18   ar
    18    18    19   ar
    19    19    20   ar
    20    20    21   ar
    21    21    22   ar
    22    22    23   ar
    23    23    24   ar
    24    24    25   ar
    25    25    16   ar
    26    25    20   ar
    27     9    26    1
    28    26    27   ar
    29    27    28   ar
    30    28    29   ar
    31    29    30   ar
    32    30    31   ar
    33    31    26   ar
    34    31    32    1
    35    32     6   am
    36    32    33    2
    37     5    34   ar
    38    34    35   ar
    39    35     2   ar
    40    35    36    1
    41     1    37    1
    42     1    38    1
    43     1    39    1
    44     3    40    1
    45     4    41    1
    46    10    42    1
    47    11    43    1
    48    12    44    1
    49    12    45    1
    50    15    46    1
    51    17    47    1
    52    18    48    1
    53    19    49    1
    54    21    50    1
    55    22    51    1
    56    23    52    1
    57    27    53    1
    58    28    54    1
    59    29    55    1
    60    30    56    1
    61    34    57    1
    62    36    58    1
    63    36    59    1
    64    36    60    1
