@<TRIPOS>MOLECULE
*****
 60 64 0 0 0
SMALL
USER_CHARGES

@<TRIPOS>ATOM
      1 C1          3.2501   -7.3925   -0.2981 C.3     1  LIG1        0.0000
      2 C2          2.5042   -6.0934   -0.0395 C.3     1  LIG1        0.0000
      3 C3          1.1651   -6.1578    0.3300 C.3     1  LIG1        0.0000
      4 C4          0.4434   -4.9945    0.5766 C.3     1  LIG1        0.0000
      5 C5          1.0822   -3.7657    0.4478 C.3     1  LIG1        0.0000
      6 N6          0.3600   -2.5924    0.6953 N.am    1  LIG1        0.0000
      7 C7          1.0562   -1.3826    0.7665 C.2     1  LIG1        0.0000
      8 O8          2.2690   -1.3392    0.6287 O.2     1  LIG1        0.0000
      9 C9          0.3371   -0.1482    1.0000 C.2     1  LIG1        0.0000
     10 C10         1.0000    1.0000    1.0000 C.2     1  LIG1        0.0000
     11 N11         2.3700    1.0000    1.0000 N.pl3   1  LIG1        0.0000
     12 C12         3.1050    2.2731    1.0000 C.3     1  LIG1        0.0000
     13 C13         2.7378    3.0701   -0.2411 C.2     1  LIG1        0.0000
     14 O14         2.9479    2.6141   -1.3310 O.2     1  LIG1        0.0000
     15 N15         2.1670    4.3092   -0.1154 N.am    1  LIG1        0.0000
     16 C16         1.2838    4.7764   -1.0974 C.3     1  LIG1        0.0000
     17 C17        -0.0800    4.6856   -0.8423 C.3     1  LIG1        0.0000
     18 C18        -1.0086    5.1311   -1.7769 C.3     1  LIG1        0.0000
     19 C19        -0.5578    5.6711   -2.9767 C.3     1  LIG1        0.0000
     20 C20         0.8075    5.7612   -3.2290 C.3     1  LIG1        0.0000
     21 C21         1.2485    6.3022   -4.4320 C.3     1  LIG1        0.0000
     22 C22         2.6132    6.3912   -4.6850 C.3     1  LIG1        0.0000
     23 C23         3.5088    5.9341   -3.7241 C.3     1  LIG1        0.0000
     24 N24         3.0522    5.4169   -2.5743 N.pl3   1  LIG1        0.0000
     25 C25         1.7421    5.3166   -2.2961 C.3     1  LIG1        0.0000
     26 C26        -1.1044   -0.2154    1.1980 C.3     1  LIG1        0.0000
     27 C27        -1.8002    0.9622    1.4543 C.3     1  LIG1        0.0000
     28 C28        -3.1752    0.9207    1.6389 C.3     1  LIG1        0.0000
     29 C29        -3.8565   -0.2891    1.5674 C.3     1  LIG1        0.0000
     30 C30        -3.1580   -1.4635    1.3138 C.3     1  LIG1        0.0000
     31 C31        -1.7794   -1.4355    1.1336 C.3     1  LIG1        0.0000
     32 C32        -1.0314   -2.6488    0.8608 C.2     1  LIG1        0.0000
     33 O33        -1.5758   -3.7399    0.7711 O.2     1  LIG1        0.0000
     34 C34         2.4213   -3.6875    0.0785 C.3     1  LIG1        0.0000
     35 C35         3.1326   -4.8577   -0.1656 C.3     1  LIG1        0.0000
     36 C36         4.5950   -4.7510   -0.5677 C.3     1  LIG1        0.0000
     37 H           2.6319   -8.1657   -0.1567 H       1  LIG1        0.0000
     38 H           3.5860   -7.4023   -1.2399 H       1  LIG1        0.0000
     39 H           4.0231   -7.4642    0.3322 H       1  LIG1        0.0000
     40 H           0.7174   -7.0475    0.4192 H       1  LIG1        0.0000
     41 H          -0.5195   -5.0410    0.8423 H       1  LIG1        0.0000
     42 H           0.5000    1.8660    1.0000 H       1  LIG1        0.0000
     43 H           2.8700    0.1340    1.0000 H       1  LIG1        0.0000
     44 H           4.0882    2.0903    1.0000 H       1  LIG1        0.0000
     45 H           2.8634    2.7974    1.8165 H       1  LIG1        0.0000
     46 H           2.3807    4.8801    0.6773 H       1  LIG1        0.0000
     47 H          -0.3966    4.2958    0.0225 H       1  LIG1        0.0000
     48 H          -1.9885    5.0639   -1.5886 H       1  LIG1        0.0000
     49 H          -1.2147    5.9947   -3.6577 H       1  LIG1        0.0000
     50 H           0.5887    6.6251   -5.1105 H       1  LIG1        0.0000
     51 H           2.9455    6.7782   -5.5451 H       1  LIG1        0.0000
     52 H           4.4932    5.9911   -3.8908 H       1  LIG1        0.0000
     53 H          -1.3123    1.8335    1.5053 H       1  LIG1        0.0000
     54 H          -3.6782    1.7649    1.8241 H       1  LIG1        0.0000
     55 H          -4.8476   -0.3142    1.6982 H       1  LIG1        0.0000
     56 H          -3.6492   -2.3330    1.2607 H       1  LIG1        0.0000
     57 H           2.8686   -2.7976   -0.0108 H       1  LIG1        0.0000
     58 H           4.8613   -3.7878   -0.6039 H       1  LIG1        0.0000
     59 H           5.1612   -5.2284    0.1042 H       1  LIG1        0.0000
     60 H           4.7243   -5.1667   -1.4680 H       1  LIG1        0.0000
@<TRIPOS>BOND
     1     1     2    1
     2     2     3   ar
     3     3     4   ar
     4     4     5   ar
     5     5     6    1
     6     6     7   am
     7     7     8    2
     8     7     9    1
     9     9    10    2
    10    10    11    1
    11    11    12    1
    12    12    13    1
    13    13    14    2
    14    13    15   am
    15    15    16    1
    16    16    17   ar
    17    17    18   ar
    18    18    19   ar
    19    19    20   ar
    20    20    21   ar
    21    21    22   ar
    22    22    23   ar
    23    23    24   ar
    24    24    25   ar
    25    25    16   ar
    26    25    20   ar
    27     9    26    1
    28    26    27   ar
    29    27    28   ar
    30    28    29   ar
    31    29    30   ar
    32    30    31   ar
    33    31    26   ar
    34    31    32    1
    35    32     6   am
    36    32    33    2
    37     5    34   ar
    38    34    35   ar
    39    35     2   ar
    40    35    36    1
    41     1    37    1
    42     1    38    1
    43     1    39    1
    44     3    40    1
    45     4    41    1
    46    10    42    1
    47    11    43    1
    48    12    44    1
    49    12    45    1
    50    15    46    1
    51    17    47    1
    52    18    48    1
    53    19    49    1
    54    21    50    1
    55    22    51    1
    56    23    52    1
    57    27    53    1
    58    28    54    1
    59    29    55    1
    60    30    56    1
    61    34    57    1
    62    36    58    1
    63    36    59    1
    64    36    60    1
