@<TRIPOS>MOLECULE
*****
 60 64 0 0 0
SMALL
USER_CHARGES

@<TRIPOS>ATOM
      1 C1          3.2876   -7.3552   -0.3659 C.3     1  LIG1        0.0000
      2 C2          2.5099   -6.0874   -0.0513 C.3     1  LIG1        0.0000
      3 C3          2.0010   -5.3400   -1.1079 C.3     1  LIG1        0.0000
      4 C4          1.2832   -4.1733   -0.8667 C.3     1  LIG1        0.0000
      5 C5          1.0822   -3.7657    0.4478 C.3     1  LIG1        0.0000
      6 N6          0.3600   -2.5924    0.6953 N.am    1  LIG1        0.0000
      7 C7          1.0562   -1.3826    0.7665 C.2     1  LIG1        0.0000
      8 O8          2.2690   -1.3392    0.6287 O.2     1  LIG1        0.0000
      9 C9          0.3371   -0.1482    1.0000 C.2     1  LIG1        0.0000
     10 C10         1.0000    1.0000    1.0000 C.2     1  LIG1        0.0000
     11 N11         2.3700    1.0000    1.0000 N.pl3   1  LIG1        0.0000
     12 C12         3.1050    2.2731    1.0000 C.3     1  LIG1        0.0000
     13 C13         3.7828    2.4668   -0.3466 C.2     1  LIG1        0.0000
     14 O14         3.1243    2.5122   -1.3488 O.2     1  LIG1        0.0000
     15 N15         5.1455    2.5895   -0.4163 N.am    1  LIG1        0.0000
     16 C16         5.8309    2.1511   -1.5568 C.3     1  LIG1        0.0000
     17 C17         5.1644    2.2014   -2.7760 C.3     1  LIG1        0.0000
     18 C18         5.7891    1.7800   -3.9449 C.3     1  LIG1        0.0000
     19 C19         7.0946    1.3045   -3.8827 C.3     1  LIG1        0.0000
     20 C20         7.7593    1.2558   -2.6614 C.3     1  LIG1        0.0000
     21 C21         9.0645    0.7781   -2.6094 C.3     1  LIG1        0.0000
     22 C22         9.7288    0.7282   -1.3885 C.3     1  LIG1        0.0000
     23 C23         9.0682    1.1588   -0.2428 C.3     1  LIG1        0.0000
     24 N24         7.8094    1.6136   -0.3257 N.pl3   1  LIG1        0.0000
     25 C25         7.1382    1.6768   -1.4873 C.3     1  LIG1        0.0000
     26 C26        -1.1044   -0.2154    1.1980 C.3     1  LIG1        0.0000
     27 C27        -1.8002    0.9622    1.4543 C.3     1  LIG1        0.0000
     28 C28        -3.1752    0.9207    1.6389 C.3     1  LIG1        0.0000
     29 C29        -3.8565   -0.2891    1.5674 C.3     1  LIG1        0.0000
     30 C30        -3.1580   -1.4635    1.3138 C.3     1  LIG1        0.0000
     31 C31        -1.7794   -1.4355    1.1336 C.3     1  LIG1        0.0000
     32 C32        -1.0314   -2.6488    0.8608 C.2     1  LIG1        0.0000
     33 O33        -1.5758   -3.7399    0.7711 O.2     1  LIG1        0.0000
     34 C34         1.5863   -4.5042    1.5138 C.3     1  LIG1        0.0000
     35 C35         2.3026   -5.6693    1.2602 C.3     1  LIG1        0.0000
     36 C36         2.8449   -6.4623    2.4386 C.3     1  LIG1        0.0000
     37 H           3.3277   -7.4844   -1.3568 H       1  LIG1        0.0000
     38 H           4.2157   -7.2758   -0.0023 H       1  LIG1        0.0000
     39 H           2.8309   -8.1393    0.0542 H       1  LIG1        0.0000
     40 H           2.1524   -5.6438   -2.0485 H       1  LIG1        0.0000
     41 H           0.9173   -3.6359   -1.6266 H       1  LIG1        0.0000
     42 H           0.5000    1.8660    1.0000 H       1  LIG1        0.0000
     43 H           2.8700    0.1340    1.0000 H       1  LIG1        0.0000
     44 H           3.7965    2.2587    1.7222 H       1  LIG1        0.0000
     45 H           2.4676    3.0260    1.1637 H       1  LIG1        0.0000
     46 H           5.6509    2.9920    0.3470 H       1  LIG1        0.0000
     47 H           4.2257    2.5442   -2.8127 H       1  LIG1        0.0000
     48 H           5.3055    1.8184   -4.8194 H       1  LIG1        0.0000
     49 H           7.5554    0.9978   -4.7155 H       1  LIG1        0.0000
     50 H           9.5222    0.4726   -3.4443 H       1  LIG1        0.0000
     51 H          10.6675    0.3876   -1.3352 H       1  LIG1        0.0000
     52 H           9.5319    1.1294    0.6427 H       1  LIG1        0.0000
     53 H          -1.3123    1.8335    1.5053 H       1  LIG1        0.0000
     54 H          -3.6782    1.7649    1.8241 H       1  LIG1        0.0000
     55 H          -4.8476   -0.3142    1.6982 H       1  LIG1        0.0000
     56 H          -3.6492   -2.3330    1.2607 H       1  LIG1        0.0000
     57 H           1.4348   -4.2000    2.4543 H       1  LIG1        0.0000
     58 H           2.5945   -6.0047    3.2918 H       1  LIG1        0.0000
     59 H           2.4560   -7.3835    2.4278 H       1  LIG1        0.0000
     60 H           3.8410   -6.5201    2.3714 H       1  LIG1        0.0000
@<TRIPOS>BOND
     1     1     2    1
     2     2     3   ar
     3     3     4   ar
     4     4     5   ar
     5     5     6    1
     6     6     7   am
     7     7     8    2
     8     7     9    1
     9     9    10    2
    10    10    11    1
    11    11    12    1
    12    12    13    1
    13    13    14    2
    14    13    15   am
    15    15    16    1
    16    16    17   ar
    17    17    18   ar
    18    18    19   ar
    19    19    20   ar
    20    20    21   ar
    21    21    22   ar
    22    22    23   ar
    23    23    24   ar
    24    24    25   ar
    25    25    16   ar
    26    25    20   ar
    27     9    26    1
    28    26    27   ar
    29    27    28   ar
    30    28    29   ar
    31    29    30   ar
    32    30    31   ar
    33    31    26   ar
    34    31    32    1
    35    32     6   am
    36    32    33    2
    37     5    34   ar
    38    34    35   ar
    39    35     2   ar
    40    35    36    1
    41     1    37    1
    42     1    38    1
    43     1    39    1
    44     3    40    1
    45     4    41    1
    46    10    42    1
    47    11    43    1
    48    12    44    1
    49    12    45    1
    50    15    46    1
    51    17    47    1
    52    18    48    1
    53    19    49    1
    54    21    50    1
    55    22    51    1
    56    23    52    1
    57    27    53    1
    58    28    54    1
    59    29    55    1
    60    30    56    1
    61    34    57    1
    62    36    58    1
    63    36    59    1
    64    36    60    1
