@<TRIPOS>MOLECULE
*****
 60 64 0 0 0
SMALL
USER_CHARGES

@<TRIPOS>ATOM
      1 C1          3.2480   -7.3918   -0.3076 C.3     1  LIG1        0.0000
      2 C2          2.5037   -6.0933   -0.0411 C.3     1  LIG1        0.0000
      3 C3          1.1237   -6.1398    0.1240 C.3     1  LIG1        0.0000
      4 C4          0.4020   -4.9764    0.3697 C.3     1  LIG1        0.0000
      5 C5          1.0822   -3.7657    0.4478 C.3     1  LIG1        0.0000
      6 N6          0.3600   -2.5924    0.6953 N.am    1  LIG1        0.0000
      7 C7          1.0562   -1.3826    0.7665 C.2     1  LIG1        0.0000
      8 O8          2.2690   -1.3392    0.6287 O.2     1  LIG1        0.0000
      9 C9          0.3371   -0.1482    1.0000 C.2     1  LIG1        0.0000
     10 C10         1.0000    1.0000    1.0000 C.2     1  LIG1        0.0000
     11 N11         2.3700    1.0000    1.0000 N.pl3   1  LIG1        0.0000
     12 C12         3.1050    2.2731    1.0000 C.3     1  LIG1        0.0000
     13 C13         2.7378    3.0701   -0.2411 C.2     1  LIG1        0.0000
     14 O14         3.2327    4.1467   -0.4310 O.2     1  LIG1        0.0000
     15 N15         1.8418    2.5594   -1.1429 N.am    1  LIG1        0.0000
     16 C16         1.5033    3.2941   -2.2867 C.3     1  LIG1        0.0000
     17 C17         1.7666    2.7243   -3.5275 C.3     1  LIG1        0.0000
     18 C18         1.4551    3.4026   -4.7010 C.3     1  LIG1        0.0000
     19 C19         0.8746    4.6640   -4.6216 C.3     1  LIG1        0.0000
     20 C20         0.6119    5.2314   -3.3787 C.3     1  LIG1        0.0000
     21 C21         0.0319    6.4936   -3.3098 C.3     1  LIG1        0.0000
     22 C22        -0.2298    7.0616   -2.0675 C.3     1  LIG1        0.0000
     23 C23         0.0973    6.3503   -0.9180 C.3     1  LIG1        0.0000
     24 N24         0.6563    5.1355   -1.0177 N.pl3   1  LIG1        0.0000
     25 C25         0.9218    4.5562   -2.1999 C.3     1  LIG1        0.0000
     26 C26        -1.1044   -0.2154    1.1980 C.3     1  LIG1        0.0000
     27 C27        -1.8002    0.9622    1.4543 C.3     1  LIG1        0.0000
     28 C28        -3.1752    0.9207    1.6389 C.3     1  LIG1        0.0000
     29 C29        -3.8565   -0.2891    1.5674 C.3     1  LIG1        0.0000
     30 C30        -3.1580   -1.4635    1.3138 C.3     1  LIG1        0.0000
     31 C31        -1.7794   -1.4355    1.1336 C.3     1  LIG1        0.0000
     32 C32        -1.0314   -2.6488    0.8608 C.2     1  LIG1        0.0000
     33 O33        -1.5758   -3.7399    0.7711 O.2     1  LIG1        0.0000
     34 C34         2.4626   -3.7055    0.2841 C.3     1  LIG1        0.0000
     35 C35         3.1735   -4.8756    0.0388 C.3     1  LIG1        0.0000
     36 C36         4.6813   -4.7888   -0.1368 C.3     1  LIG1        0.0000
     37 H           2.5973   -8.1508   -0.3284 H       1  LIG1        0.0000
     38 H           3.7183   -7.3318   -1.1881 H       1  LIG1        0.0000
     39 H           3.9181   -7.5470    0.4183 H       1  LIG1        0.0000
     40 H           0.6464   -7.0166    0.0656 H       1  LIG1        0.0000
     41 H          -0.5904   -5.0100    0.4884 H       1  LIG1        0.0000
     42 H           0.5000    1.8660    1.0000 H       1  LIG1        0.0000
     43 H           2.8700    0.1340    1.0000 H       1  LIG1        0.0000
     44 H           4.0882    2.0903    1.0000 H       1  LIG1        0.0000
     45 H           2.8634    2.7974    1.8165 H       1  LIG1        0.0000
     46 H           1.4293    1.6623   -0.9846 H       1  LIG1        0.0000
     47 H           2.1843    1.8171   -3.5765 H       1  LIG1        0.0000
     48 H           1.6461    2.9884   -5.5909 H       1  LIG1        0.0000
     49 H           0.6462    5.1629   -5.4576 H       1  LIG1        0.0000
     50 H          -0.1956    6.9894   -4.1479 H       1  LIG1        0.0000
     51 H          -0.6469    7.9681   -2.0018 H       1  LIG1        0.0000
     52 H          -0.0845    6.7447   -0.0172 H       1  LIG1        0.0000
     53 H          -1.3123    1.8335    1.5053 H       1  LIG1        0.0000
     54 H          -3.6782    1.7649    1.8241 H       1  LIG1        0.0000
     55 H          -4.8476   -0.3142    1.6982 H       1  LIG1        0.0000
     56 H          -3.6492   -2.3330    1.2607 H       1  LIG1        0.0000
     57 H           2.9395   -2.8285    0.3424 H       1  LIG1        0.0000
     58 H           4.9732   -3.8367   -0.0456 H       1  LIG1        0.0000
     59 H           5.1309   -5.3439    0.5630 H       1  LIG1        0.0000
     60 H           4.9314   -5.1288   -1.0434 H       1  LIG1        0.0000
@<TRIPOS>BOND
     1     1     2    1
     2     2     3   ar
     3     3     4   ar
     4     4     5   ar
     5     5     6    1
     6     6     7   am
     7     7     8    2
     8     7     9    1
     9     9    10    2
    10    10    11    1
    11    11    12    1
    12    12    13    1
    13    13    14    2
    14    13    15   am
    15    15    16    1
    16    16    17   ar
    17    17    18   ar
    18    18    19   ar
    19    19    20   ar
    20    20    21   ar
    21    21    22   ar
    22    22    23   ar
    23    23    24   ar
    24    24    25   ar
    25    25    16   ar
    26    25    20   ar
    27     9    26    1
    28    26    27   ar
    29    27    28   ar
    30    28    29   ar
    31    29    30   ar
    32    30    31   ar
    33    31    26   ar
    34    31    32    1
    35    32     6   am
    36    32    33    2
    37     5    34   ar
    38    34    35   ar
    39    35     2   ar
    40    35    36    1
    41     1    37    1
    42     1    38    1
    43     1    39    1
    44     3    40    1
    45     4    41    1
    46    10    42    1
    47    11    43    1
    48    12    44    1
    49    12    45    1
    50    15    46    1
    51    17    47    1
    52    18    48    1
    53    19    49    1
    54    21    50    1
    55    22    51    1
    56    23    52    1
    57    27    53    1
    58    28    54    1
    59    29    55    1
    60    30    56    1
    61    34    57    1
    62    36    58    1
    63    36    59    1
    64    36    60    1
