@<TRIPOS>MOLECULE
*****
 29 30 0 0 0
SMALL
USER_CHARGES

@<TRIPOS>ATOM
      1 C1          0.1224    0.1224    1.8776 C.3     1  LIG1        0.0000
      2 C2          1.0000    1.0000    1.0000 C.3     1  LIG1        0.0000
      3 C3          1.8776    0.1224    0.1224 C.3     1  LIG1        0.0000
      4 O4          0.1802    1.8198    0.1802 O.3     1  LIG1        0.0000
      5 C5          1.8776    1.8776    1.8776 C.2     1  LIG1        0.0000
      6 C6          1.3336    2.7125    2.7125 C.2     1  LIG1        0.0000
      7 C7          2.1709    3.5498    3.5498 C.2     1  LIG1        0.0000
      8 C8          1.6823    4.7764    3.9180 C.2     1  LIG1        0.0000
      9 C9          2.4759    5.6217    4.7385 C.2     1  LIG1        0.0000
     10 C10         3.7119    5.1837    5.1370 C.2     1  LIG1        0.0000
     11 N11         4.1778    3.9525    4.7541 N.pl3   1  LIG1        0.0000
     12 C12         5.3515    3.3150    5.0277 C.2     1  LIG1        0.0000
     13 N13         5.3681    2.1354    4.4486 N.2     1  LIG1        0.0000
     14 C14         4.1905    1.9808    3.7782 C.2     1  LIG1        0.0000
     15 C15         3.4565    3.1132    3.9743 C.2     1  LIG1        0.0000
     16 H           0.6998   -0.4549    2.4549 H       1  LIG1        0.0000
     17 H          -0.4549    0.6998    2.4549 H       1  LIG1        0.0000
     18 H          -0.4549   -0.4549    1.3002 H       1  LIG1        0.0000
     19 H           2.4549   -0.4549    0.6998 H       1  LIG1        0.0000
     20 H           1.3002   -0.4549   -0.4549 H       1  LIG1        0.0000
     21 H           2.4549    0.6998   -0.4549 H       1  LIG1        0.0000
     22 H          -0.3972    1.2425   -0.3972 H       1  LIG1        0.0000
     23 H           2.8734    1.8127    1.8127 H       1  LIG1        0.0000
     24 H           0.3378    2.7773    2.7773 H       1  LIG1        0.0000
     25 H           0.7774    5.0728    3.6124 H       1  LIG1        0.0000
     26 H           2.1389    6.5201    5.0203 H       1  LIG1        0.0000
     27 H           4.2810    5.7694    5.7142 H       1  LIG1        0.0000
     28 H           6.0909    3.6898    5.5868 H       1  LIG1        0.0000
     29 H           3.9158    1.1832    3.2412 H       1  LIG1        0.0000
@<TRIPOS>BOND
     1     1     2    1
     2     2     3    1
     3     2     4    1
     4     2     5    1
     5     5     6    2
     6     6     7    1
     7     7     8    2
     8     8     9    1
     9     9    10    2
    10    10    11    1
    11    11    12    1
    12    12    13    2
    13    13    14    1
    14    14    15    2
    15    15     7    1
    16    15    11    1
    17     1    16    1
    18     1    17    1
    19     1    18    1
    20     3    19    1
    21     3    20    1
    22     3    21    1
    23     4    22    1
    24     5    23    1
    25     6    24    1
    26     8    25    1
    27     9    26    1
    28    10    27    1
    29    12    28    1
    30    14    29    1
