@<TRIPOS>MOLECULE
*****
 29 30 0 0 0
SMALL
USER_CHARGES

@<TRIPOS>ATOM
      1 C1          0.1224    0.1224    1.8776 C.3     1  LIG1        0.0000
      2 C2          1.0000    1.0000    1.0000 C.3     1  LIG1        0.0000
      3 C3          1.8776    0.1224    0.1224 C.3     1  LIG1        0.0000
      4 O4          0.1802    1.8198    0.1802 O.3     1  LIG1        0.0000
      5 C5          1.8776    1.8776    1.8776 C.2     1  LIG1        0.0000
      6 C6          2.7125    1.3336    2.7125 C.2     1  LIG1        0.0000
      7 C7          3.5498    2.1709    3.5498 C.2     1  LIG1        0.0000
      8 C8          4.7759    1.6818    3.9190 C.2     1  LIG1        0.0000
      9 C9          5.6219    2.4761    4.7382 C.2     1  LIG1        0.0000
     10 C10         5.1835    3.7118    5.1373 C.2     1  LIG1        0.0000
     11 N11         3.9522    4.1775    4.7547 N.pl3   1  LIG1        0.0000
     12 C12         3.3183    5.3548    5.0210 C.2     1  LIG1        0.0000
     13 N13         2.1404    5.3730    4.4387 N.2     1  LIG1        0.0000
     14 C14         1.9828    4.1926    3.7741 C.2     1  LIG1        0.0000
     15 C15         3.1132    3.4565    3.9743 C.2     1  LIG1        0.0000
     16 H           0.6998   -0.4549    2.4549 H       1  LIG1        0.0000
     17 H          -0.4549    0.6998    2.4549 H       1  LIG1        0.0000
     18 H          -0.4549   -0.4549    1.3002 H       1  LIG1        0.0000
     19 H           2.4549   -0.4549    0.6998 H       1  LIG1        0.0000
     20 H           1.3002   -0.4549   -0.4549 H       1  LIG1        0.0000
     21 H           2.4549    0.6998   -0.4549 H       1  LIG1        0.0000
     22 H          -0.3972    1.2425   -0.3972 H       1  LIG1        0.0000
     23 H           1.8127    2.8734    1.8127 H       1  LIG1        0.0000
     24 H           2.7773    0.3378    2.7773 H       1  LIG1        0.0000
     25 H           5.0714    0.7760    3.6152 H       1  LIG1        0.0000
     26 H           6.5209    2.1398    5.0185 H       1  LIG1        0.0000
     27 H           5.7691    4.2807    5.7147 H       1  LIG1        0.0000
     28 H           3.6945    6.0956    5.5775 H       1  LIG1        0.0000
     29 H           1.1847    3.9173    3.2382 H       1  LIG1        0.0000
@<TRIPOS>BOND
     1     1     2    1
     2     2     3    1
     3     2     4    1
     4     2     5    1
     5     5     6    2
     6     6     7    1
     7     7     8    2
     8     8     9    1
     9     9    10    2
    10    10    11    1
    11    11    12    1
    12    12    13    2
    13    13    14    1
    14    14    15    2
    15    15     7    1
    16    15    11    1
    17     1    16    1
    18     1    17    1
    19     1    18    1
    20     3    19    1
    21     3    20    1
    22     3    21    1
    23     4    22    1
    24     5    23    1
    25     6    24    1
    26     8    25    1
    27     9    26    1
    28    10    27    1
    29    12    28    1
    30    14    29    1
