@<TRIPOS>MOLECULE
*****
 29 30 0 0 0
SMALL
USER_CHARGES

@<TRIPOS>ATOM
      1 C1          0.1224    0.1224    1.8776 C.3     1  LIG1        0.0000
      2 C2          1.0000    1.0000    1.0000 C.3     1  LIG1        0.0000
      3 C3          1.8776    0.1224    0.1224 C.3     1  LIG1        0.0000
      4 O4          0.1802    1.8198    0.1802 O.3     1  LIG1        0.0000
      5 C5          1.8776    1.8776    1.8776 C.2     1  LIG1        0.0000
      6 C6          3.0489    2.2529    1.4568 C.2     1  LIG1        0.0000
      7 C7          3.8863    3.0902    2.2941 C.2     1  LIG1        0.0000
      8 C8          3.2647    3.9545    3.1575 C.2     1  LIG1        0.0000
      9 C9          4.0547    4.7886    3.9928 C.2     1  LIG1        0.0000
     10 C10         5.4200    4.7045    3.9082 C.2     1  LIG1        0.0000
     11 N11         6.0170    3.8320    3.0353 N.pl3   1  LIG1        0.0000
     12 C12         7.3326    3.5759    2.7856 C.2     1  LIG1        0.0000
     13 N13         7.4426    2.6485    1.8610 N.2     1  LIG1        0.0000
     14 C14         6.1845    2.2788    1.4862 C.2     1  LIG1        0.0000
     15 C15         5.3050    3.0175    2.2214 C.2     1  LIG1        0.0000
     16 H           0.6998   -0.4549    2.4549 H       1  LIG1        0.0000
     17 H          -0.4549    0.6998    2.4549 H       1  LIG1        0.0000
     18 H          -0.4549   -0.4549    1.3002 H       1  LIG1        0.0000
     19 H           2.4549   -0.4549    0.6998 H       1  LIG1        0.0000
     20 H           1.3002   -0.4549   -0.4549 H       1  LIG1        0.0000
     21 H           2.4549    0.6998   -0.4549 H       1  LIG1        0.0000
     22 H          -0.3972    1.2425   -0.3972 H       1  LIG1        0.0000
     23 H           1.5539    2.1662    2.7786 H       1  LIG1        0.0000
     24 H           3.3726    1.9642    0.5557 H       1  LIG1        0.0000
     25 H           2.2664    3.9973    3.1989 H       1  LIG1        0.0000
     26 H           3.6225    5.4257    4.6311 H       1  LIG1        0.0000
     27 H           5.9877    5.2867    4.4902 H       1  LIG1        0.0000
     28 H           8.1010    4.0273    3.2393 H       1  LIG1        0.0000
     29 H           5.9499    1.5919    0.7984 H       1  LIG1        0.0000
@<TRIPOS>BOND
     1     1     2    1
     2     2     3    1
     3     2     4    1
     4     2     5    1
     5     5     6    2
     6     6     7    1
     7     7     8    2
     8     8     9    1
     9     9    10    2
    10    10    11    1
    11    11    12    1
    12    12    13    2
    13    13    14    1
    14    14    15    2
    15    15     7    1
    16    15    11    1
    17     1    16    1
    18     1    17    1
    19     1    18    1
    20     3    19    1
    21     3    20    1
    22     3    21    1
    23     4    22    1
    24     5    23    1
    25     6    24    1
    26     8    25    1
    27     9    26    1
    28    10    27    1
    29    12    28    1
    30    14    29    1
