@<TRIPOS>MOLECULE
*****
 29 30 0 0 0
SMALL
USER_CHARGES

@<TRIPOS>ATOM
      1 C1          0.1224    0.1224    1.8776 C.3     1  LIG1        0.0000
      2 C2          1.0000    1.0000    1.0000 C.3     1  LIG1        0.0000
      3 C3          1.8776    0.1224    0.1224 C.3     1  LIG1        0.0000
      4 O4          0.1802    1.8198    0.1802 O.3     1  LIG1        0.0000
      5 C5          1.8776    1.8776    1.8776 C.2     1  LIG1        0.0000
      6 C6          2.4125    2.9570    1.3890 C.2     1  LIG1        0.0000
      7 C7          3.2498    3.7944    2.2264 C.2     1  LIG1        0.0000
      8 C8          4.2555    4.5013    1.6199 C.2     1  LIG1        0.0000
      9 C9          5.0939    5.3320    2.4103 C.2     1  LIG1        0.0000
     10 C10         4.8718    5.3999    3.7609 C.2     1  LIG1        0.0000
     11 N11         3.8593    4.6819    4.3431 N.pl3   1  LIG1        0.0000
     12 C12         3.4543    4.5976    5.6422 C.2     1  LIG1        0.0000
     13 N13         2.4285    3.7822    5.7414 N.2     1  LIG1        0.0000
     14 C14         2.1428    3.3140    4.4927 C.2     1  LIG1        0.0000
     15 C15         3.0352    3.8788    3.6300 C.2     1  LIG1        0.0000
     16 H           0.6998   -0.4549    2.4549 H       1  LIG1        0.0000
     17 H          -0.4549    0.6998    2.4549 H       1  LIG1        0.0000
     18 H          -0.4549   -0.4549    1.3002 H       1  LIG1        0.0000
     19 H           2.4549   -0.4549    0.6998 H       1  LIG1        0.0000
     20 H           1.3002   -0.4549   -0.4549 H       1  LIG1        0.0000
     21 H           2.4549    0.6998   -0.4549 H       1  LIG1        0.0000
     22 H          -0.3972    1.2425   -0.3972 H       1  LIG1        0.0000
     23 H           2.0435    1.6246    2.8307 H       1  LIG1        0.0000
     24 H           2.2466    3.2100    0.4359 H       1  LIG1        0.0000
     25 H           4.3972    4.4330    0.6324 H       1  LIG1        0.0000
     26 H           5.8329    5.8576    1.9888 H       1  LIG1        0.0000
     27 H           5.4553    5.9804    4.3288 H       1  LIG1        0.0000
     28 H           3.8758    5.0847    6.4071 H       1  LIG1        0.0000
     29 H           1.4127    2.6738    4.2537 H       1  LIG1        0.0000
@<TRIPOS>BOND
     1     1     2    1
     2     2     3    1
     3     2     4    1
     4     2     5    1
     5     5     6    2
     6     6     7    1
     7     7     8    2
     8     8     9    1
     9     9    10    2
    10    10    11    1
    11    11    12    1
    12    12    13    2
    13    13    14    1
    14    14    15    2
    15    15     7    1
    16    15    11    1
    17     1    16    1
    18     1    17    1
    19     1    18    1
    20     3    19    1
    21     3    20    1
    22     3    21    1
    23     4    22    1
    24     5    23    1
    25     6    24    1
    26     8    25    1
    27     9    26    1
    28    10    27    1
    29    12    28    1
    30    14    29    1
