@<TRIPOS>MOLECULE

  44   47
SMALL
USER_CHARGES
@<TRIPOS>ATOM
   1 O1          -1.6550     0.7052     0.4851 O.2          1    LIG   0.0000
   2 C2          -1.0550    -0.1863     1.0191 C.2          1    LIG   0.0000
   3 N3           0.3150    -0.1863     1.0191 N.am         1    LIG   0.0000
   4 C4           1.0000     1.0000     1.0000 C.2          1    LIG   0.0000
   5 C5           0.3500     2.1257     0.9818 C.2          1    LIG   0.0000
   6 C6           1.0752     3.3816     0.9616 C.ar         1    LIG   0.0000
   7 C7           0.8979     4.2657    -0.0981 C.ar         1    LIG   0.0000
   8 C8           1.5959     5.4683    -0.1118 C.ar         1    LIG   0.0000
   9 C9           2.4609     5.7680     0.9366 C.ar         1    LIG   0.0000
  10 N10          2.6153     4.9005     1.9477 N.ar         1    LIG   0.0000
  11 C11          1.9529     3.7345     1.9813 C.ar         1    LIG   0.0000
  12 C12          2.4500     1.0000     1.0000 C.2          1    LIG   0.0000
  13 N13          3.2134     2.0639     0.9827 N.2          1    LIG   0.0000
  14 C14          4.4867     1.5826     0.9915 C.2          1    LIG   0.0000
  15 C15          5.6963     2.3824     0.9801 C.ar         1    LIG   0.0000
  16 C16          5.6120     3.7706     0.9584 C.ar         1    LIG   0.0000
  17 C17          6.7721     4.5376     0.9484 C.ar         1    LIG   0.0000
  18 C18          8.0169     3.9167     0.9588 C.ar         1    LIG   0.0000
  19 C19          8.1008     2.5285     0.9791 C.ar         1    LIG   0.0000
  20 C20          6.9414     1.7615     0.9897 C.ar         1    LIG   0.0000
  21 Br21         7.0607    -0.1951     1.0187 Br           1    LIG   0.0000
  22 N22          4.4315     0.2770     1.0117 N.2          1    LIG   0.0000
  23 O23          3.2153    -0.0644     1.0172 O.2          1    LIG   0.0000
  24 C24         -1.7801    -1.2637     1.6646 C.ar         1    LIG   0.0000
  25 C25         -3.1080    -1.0753     2.0337 C.ar         1    LIG   0.0000
  26 C26         -3.7956    -2.1138     2.6529 C.ar         1    LIG   0.0000
  27 C27         -3.1553    -3.3250     2.8967 C.ar         1    LIG   0.0000
  28 C28         -1.8272    -3.5047     2.5239 C.ar         1    LIG   0.0000
  29 C29         -1.1319    -2.4709     1.9047 C.ar         1    LIG   0.0000
  30 H            0.8150    -1.0522     1.0331 H            1    LIG   0.0000
  31 H           -0.6500     2.1257     0.9818 H            1    LIG   0.0000
  32 H            0.2728     4.0378    -0.8446 H            1    LIG   0.0000
  33 H            1.4775     6.1119    -0.8679 H            1    LIG   0.0000
  34 H            2.9673     6.6303     0.9359 H            1    LIG   0.0000
  35 H            2.0921     3.1103     2.7501 H            1    LIG   0.0000
  36 H            4.7173     4.2172     0.9501 H            1    LIG   0.0000
  37 H            6.7115     5.5357     0.9337 H            1    LIG   0.0000
  38 H            8.8511     4.4682     0.9516 H            1    LIG   0.0000
  39 H            8.9955     2.0820     0.9861 H            1    LIG   0.0000
  40 H           -3.5632    -0.2029     1.8558 H            1    LIG   0.0000
  41 H           -4.7504    -1.9900     2.9229 H            1    LIG   0.0000
  42 H           -3.6522    -4.0698     3.3420 H            1    LIG   0.0000
  43 H           -1.3720    -4.3773     2.7011 H            1    LIG   0.0000
  44 H           -0.1768    -2.5942     1.6352 H            1    LIG   0.0000
@<TRIPOS>BOND
   1        1        2 2
   2        2        3 am
   3        3        4 1
   4        4        5 2
   5        5        6 1
   6        6        7 ar
   7        7        8 ar
   8        8        9 ar
   9        9       10 ar
  10       10       11 ar
  11       11        6 ar
  12        4       12 1
  13       12       13 2
  14       13       14 1
  15       14       15 1
  16       15       16 ar
  17       16       17 ar
  18       17       18 ar
  19       18       19 ar
  20       19       20 ar
  21       20       15 ar
  22       20       21 1
  23       14       22 2
  24       22       23 1
  25       23       12 1
  26        2       24 1
  27       24       25 ar
  28       25       26 ar
  29       26       27 ar
  30       27       28 ar
  31       28       29 ar
  32       29       24 ar
  33        3       30 1
  34        5       31 1
  35        7       32 1
  36        8       33 1
  37        9       34 1
  38       11       35 1
  39       16       36 1
  40       17       37 1
  41       18       38 1
  42       19       39 1
  43       25       40 1
  44       26       41 1
  45       27       42 1
  46       28       43 1
  47       29       44 1

@<TRIPOS>MOLECULE

  44   47
SMALL
USER_CHARGES
@<TRIPOS>ATOM
   1 O1          -1.7166    -1.0459     1.3267 O.2          1    LIG   0.0000
   2 C2          -1.0394    -0.1986     0.8133 C.2          1    LIG   0.0000
   3 N3           0.3150    -0.1863     1.0191 N.am         1    LIG   0.0000
   4 C4           1.0000     1.0000     1.0000 C.2          1    LIG   0.0000
   5 C5           0.3500     2.1257     0.9818 C.2          1    LIG   0.0000
   6 C6           1.0752     3.3816     0.9616 C.ar         1    LIG   0.0000
   7 C7           0.8979     4.2657    -0.0981 C.ar         1    LIG   0.0000
   8 C8           1.5959     5.4683    -0.1118 C.ar         1    LIG   0.0000
   9 C9           2.4609     5.7680     0.9366 C.ar         1    LIG   0.0000
  10 N10          2.6153     4.9005     1.9477 N.ar         1    LIG   0.0000
  11 C11          1.9529     3.7345     1.9813 C.ar         1    LIG   0.0000
  12 C12          2.4500     1.0000     1.0000 C.2          1    LIG   0.0000
  13 N13          3.2134     2.0639     0.9827 N.2          1    LIG   0.0000
  14 C14          4.4867     1.5826     0.9915 C.2          1    LIG   0.0000
  15 C15          5.6963     2.3824     0.9801 C.ar         1    LIG   0.0000
  16 C16          5.6120     3.7706     0.9584 C.ar         1    LIG   0.0000
  17 C17          6.7721     4.5376     0.9484 C.ar         1    LIG   0.0000
  18 C18          8.0169     3.9167     0.9588 C.ar         1    LIG   0.0000
  19 C19          8.1008     2.5285     0.9791 C.ar         1    LIG   0.0000
  20 C20          6.9414     1.7615     0.9897 C.ar         1    LIG   0.0000
  21 Br21         7.0607    -0.1951     1.0187 Br           1    LIG   0.0000
  22 N22          4.4315     0.2770     1.0117 N.2          1    LIG   0.0000
  23 O23          3.2153    -0.0644     1.0172 O.2          1    LIG   0.0000
  24 C24         -1.6547     0.8122    -0.0251 C.ar         1    LIG   0.0000
  25 C25         -3.0176     1.0654     0.0899 C.ar         1    LIG   0.0000
  26 C26         -3.5995     2.0361    -0.7186 C.ar         1    LIG   0.0000
  27 C27         -2.8200     2.7422    -1.6298 C.ar         1    LIG   0.0000
  28 C28         -1.4576     2.4826    -1.7378 C.ar         1    LIG   0.0000
  29 C29         -0.8678     1.5128    -0.9334 C.ar         1    LIG   0.0000
  30 H            0.8036    -1.0432     1.1834 H            1    LIG   0.0000
  31 H           -0.6500     2.1257     0.9818 H            1    LIG   0.0000
  32 H            0.2728     4.0378    -0.8446 H            1    LIG   0.0000
  33 H            1.4775     6.1119    -0.8679 H            1    LIG   0.0000
  34 H            2.9673     6.6303     0.9359 H            1    LIG   0.0000
  35 H            2.0921     3.1103     2.7501 H            1    LIG   0.0000
  36 H            4.7173     4.2172     0.9501 H            1    LIG   0.0000
  37 H            6.7115     5.5357     0.9337 H            1    LIG   0.0000
  38 H            8.8511     4.4682     0.9516 H            1    LIG   0.0000
  39 H            8.9955     2.0820     0.9861 H            1    LIG   0.0000
  40 H           -3.5729     0.5551     0.7466 H            1    LIG   0.0000
  41 H           -4.5784     2.2267    -0.6450 H            1    LIG   0.0000
  42 H           -3.2412     3.4396    -2.2097 H            1    LIG   0.0000
  43 H           -0.9020     2.9933    -2.3940 H            1    LIG   0.0000
  44 H            0.1110     1.3216    -1.0073 H            1    LIG   0.0000
@<TRIPOS>BOND
   1        1        2 2
   2        2        3 am
   3        3        4 1
   4        4        5 2
   5        5        6 1
   6        6        7 ar
   7        7        8 ar
   8        8        9 ar
   9        9       10 ar
  10       10       11 ar
  11       11        6 ar
  12        4       12 1
  13       12       13 2
  14       13       14 1
  15       14       15 1
  16       15       16 ar
  17       16       17 ar
  18       17       18 ar
  19       18       19 ar
  20       19       20 ar
  21       20       15 ar
  22       20       21 1
  23       14       22 2
  24       22       23 1
  25       23       12 1
  26        2       24 1
  27       24       25 ar
  28       25       26 ar
  29       26       27 ar
  30       27       28 ar
  31       28       29 ar
  32       29       24 ar
  33        3       30 1
  34        5       31 1
  35        7       32 1
  36        8       33 1
  37        9       34 1
  38       11       35 1
  39       16       36 1
  40       17       37 1
  41       18       38 1
  42       19       39 1
  43       25       40 1
  44       26       41 1
  45       27       42 1
  46       28       43 1
  47       29       44 1

@<TRIPOS>MOLECULE

  44   47
SMALL
USER_CHARGES
@<TRIPOS>ATOM
   1 O1          -0.1138    -2.1317     0.0229 O.2          1    LIG   0.0000
   2 C2           0.4862    -1.0926     0.0061 C.2          1    LIG   0.0000
   3 N3           0.3150    -0.1863     1.0191 N.am         1    LIG   0.0000
   4 C4           1.0000     1.0000     1.0000 C.2          1    LIG   0.0000
   5 C5           0.3500     2.1257     0.9818 C.2          1    LIG   0.0000
   6 C6           1.0752     3.3816     0.9616 C.ar         1    LIG   0.0000
   7 C7           0.8979     4.2657    -0.0981 C.ar         1    LIG   0.0000
   8 C8           1.5959     5.4683    -0.1118 C.ar         1    LIG   0.0000
   9 C9           2.4609     5.7680     0.9366 C.ar         1    LIG   0.0000
  10 N10          2.6153     4.9005     1.9477 N.ar         1    LIG   0.0000
  11 C11          1.9529     3.7345     1.9813 C.ar         1    LIG   0.0000
  12 C12          2.4500     1.0000     1.0000 C.2          1    LIG   0.0000
  13 N13          3.2134     2.0639     0.9827 N.2          1    LIG   0.0000
  14 C14          4.4867     1.5826     0.9915 C.2          1    LIG   0.0000
  15 C15          5.6963     2.3824     0.9801 C.ar         1    LIG   0.0000
  16 C16          5.6120     3.7706     0.9584 C.ar         1    LIG   0.0000
  17 C17          6.7721     4.5376     0.9484 C.ar         1    LIG   0.0000
  18 C18          8.0169     3.9167     0.9588 C.ar         1    LIG   0.0000
  19 C19          8.1008     2.5285     0.9791 C.ar         1    LIG   0.0000
  20 C20          6.9414     1.7615     0.9897 C.ar         1    LIG   0.0000
  21 Br21         7.0607    -0.1951     1.0187 Br           1    LIG   0.0000
  22 N22          4.4315     0.2770     1.0117 N.2          1    LIG   0.0000
  23 O23          3.2153    -0.0644     1.0172 O.2          1    LIG   0.0000
  24 C24          1.3927    -0.7962    -1.0865 C.ar         1    LIG   0.0000
  25 C25          2.2051    -1.8023    -1.5990 C.ar         1    LIG   0.0000
  26 C26          3.0719    -1.5090    -2.6464 C.ar         1    LIG   0.0000
  27 C27          3.1198    -0.2208    -3.1707 C.ar         1    LIG   0.0000
  28 C28          2.3036     0.7791    -2.6522 C.ar         1    LIG   0.0000
  29 C29          1.4341     0.4943    -1.6040 C.ar         1    LIG   0.0000
  30 H           -0.3100    -0.3907     1.7725 H            1    LIG   0.0000
  31 H           -0.6500     2.1257     0.9818 H            1    LIG   0.0000
  32 H            0.2728     4.0378    -0.8446 H            1    LIG   0.0000
  33 H            1.4775     6.1119    -0.8679 H            1    LIG   0.0000
  34 H            2.9673     6.6303     0.9359 H            1    LIG   0.0000
  35 H            2.0921     3.1103     2.7501 H            1    LIG   0.0000
  36 H            4.7173     4.2172     0.9501 H            1    LIG   0.0000
  37 H            6.7115     5.5357     0.9337 H            1    LIG   0.0000
  38 H            8.8511     4.4682     0.9516 H            1    LIG   0.0000
  39 H            8.9955     2.0820     0.9861 H            1    LIG   0.0000
  40 H            2.1663    -2.7263    -1.2185 H            1    LIG   0.0000
  41 H            3.6610    -2.2240    -3.0229 H            1    LIG   0.0000
  42 H            3.7441    -0.0130    -3.9237 H            1    LIG   0.0000
  43 H            2.3417     1.7030    -3.0329 H            1    LIG   0.0000
  44 H            0.8455     1.2094    -1.2269 H            1    LIG   0.0000
@<TRIPOS>BOND
   1        1        2 2
   2        2        3 am
   3        3        4 1
   4        4        5 2
   5        5        6 1
   6        6        7 ar
   7        7        8 ar
   8        8        9 ar
   9        9       10 ar
  10       10       11 ar
  11       11        6 ar
  12        4       12 1
  13       12       13 2
  14       13       14 1
  15       14       15 1
  16       15       16 ar
  17       16       17 ar
  18       17       18 ar
  19       18       19 ar
  20       19       20 ar
  21       20       15 ar
  22       20       21 1
  23       14       22 2
  24       22       23 1
  25       23       12 1
  26        2       24 1
  27       24       25 ar
  28       25       26 ar
  29       26       27 ar
  30       27       28 ar
  31       28       29 ar
  32       29       24 ar
  33        3       30 1
  34        5       31 1
  35        7       32 1
  36        8       33 1
  37        9       34 1
  38       11       35 1
  39       16       36 1
  40       17       37 1
  41       18       38 1
  42       19       39 1
  43       25       40 1
  44       26       41 1
  45       27       42 1
  46       28       43 1
  47       29       44 1

@<TRIPOS>MOLECULE

  44   47
SMALL
USER_CHARGES
@<TRIPOS>ATOM
   1 O1          -0.1138    -2.0985     2.0776 O.2          1    LIG   0.0000
   2 C2           0.4862    -1.0594     2.0609 C.2          1    LIG   0.0000
   3 N3           0.3150    -0.1863     1.0191 N.am         1    LIG   0.0000
   4 C4           1.0000     1.0000     1.0000 C.2          1    LIG   0.0000
   5 C5           0.3500     2.1257     0.9818 C.2          1    LIG   0.0000
   6 C6           1.0752     3.3816     0.9616 C.ar         1    LIG   0.0000
   7 C7           0.8979     4.2657    -0.0981 C.ar         1    LIG   0.0000
   8 C8           1.5959     5.4683    -0.1118 C.ar         1    LIG   0.0000
   9 C9           2.4609     5.7680     0.9366 C.ar         1    LIG   0.0000
  10 N10          2.6153     4.9005     1.9477 N.ar         1    LIG   0.0000
  11 C11          1.9529     3.7345     1.9813 C.ar         1    LIG   0.0000
  12 C12          2.4500     1.0000     1.0000 C.2          1    LIG   0.0000
  13 N13          3.2134     2.0639     0.9827 N.2          1    LIG   0.0000
  14 C14          4.4867     1.5826     0.9915 C.2          1    LIG   0.0000
  15 C15          5.6963     2.3824     0.9801 C.ar         1    LIG   0.0000
  16 C16          5.6120     3.7706     0.9584 C.ar         1    LIG   0.0000
  17 C17          6.7721     4.5376     0.9484 C.ar         1    LIG   0.0000
  18 C18          8.0169     3.9167     0.9588 C.ar         1    LIG   0.0000
  19 C19          8.1008     2.5285     0.9791 C.ar         1    LIG   0.0000
  20 C20          6.9414     1.7615     0.9897 C.ar         1    LIG   0.0000
  21 Br21         7.0607    -0.1951     1.0187 Br           1    LIG   0.0000
  22 N22          4.4315     0.2770     1.0117 N.2          1    LIG   0.0000
  23 O23          3.2153    -0.0644     1.0172 O.2          1    LIG   0.0000
  24 C24          1.3927    -0.7279     3.1434 C.ar         1    LIG   0.0000
  25 C25          2.2051    -1.7170     3.6880 C.ar         1    LIG   0.0000
  26 C26          3.0709    -1.3903     4.7264 C.ar         1    LIG   0.0000
  27 C27          3.1182    -0.0861     5.2094 C.ar         1    LIG   0.0000
  28 C28          2.3023     0.8967     4.6585 C.ar         1    LIG   0.0000
  29 C29          1.4330     0.5783     3.6200 C.ar         1    LIG   0.0000
  30 H           -0.3100    -0.4149     0.2727 H            1    LIG   0.0000
  31 H           -0.6500     2.1257     0.9818 H            1    LIG   0.0000
  32 H            0.2728     4.0378    -0.8446 H            1    LIG   0.0000
  33 H            1.4775     6.1119    -0.8679 H            1    LIG   0.0000
  34 H            2.9673     6.6303     0.9359 H            1    LIG   0.0000
  35 H            2.0921     3.1103     2.7501 H            1    LIG   0.0000
  36 H            4.7173     4.2172     0.9501 H            1    LIG   0.0000
  37 H            6.7115     5.5357     0.9337 H            1    LIG   0.0000
  38 H            8.8511     4.4682     0.9516 H            1    LIG   0.0000
  39 H            8.9955     2.0820     0.9861 H            1    LIG   0.0000
  40 H            2.1671    -2.6525     3.3369 H            1    LIG   0.0000
  41 H            3.6596    -2.0930     5.1261 H            1    LIG   0.0000
  42 H            3.7418     0.1457     5.9560 H            1    LIG   0.0000
  43 H            2.3407     1.8325     5.0091 H            1    LIG   0.0000
  44 H            0.8437     1.2806     3.2207 H            1    LIG   0.0000
@<TRIPOS>BOND
   1        1        2 2
   2        2        3 am
   3        3        4 1
   4        4        5 2
   5        5        6 1
   6        6        7 ar
   7        7        8 ar
   8        8        9 ar
   9        9       10 ar
  10       10       11 ar
  11       11        6 ar
  12        4       12 1
  13       12       13 2
  14       13       14 1
  15       14       15 1
  16       15       16 ar
  17       16       17 ar
  18       17       18 ar
  19       18       19 ar
  20       19       20 ar
  21       20       15 ar
  22       20       21 1
  23       14       22 2
  24       22       23 1
  25       23       12 1
  26        2       24 1
  27       24       25 ar
  28       25       26 ar
  29       26       27 ar
  30       27       28 ar
  31       28       29 ar
  32       29       24 ar
  33        3       30 1
  34        5       31 1
  35        7       32 1
  36        8       33 1
  37        9       34 1
  38       11       35 1
  39       16       36 1
  40       17       37 1
  41       18       38 1
  42       19       39 1
  43       25       40 1
  44       26       41 1
  45       27       42 1
  46       28       43 1
  47       29       44 1

@<TRIPOS>MOLECULE

  44   47
SMALL
USER_CHARGES
@<TRIPOS>ATOM
   1 O1           0.7561    -0.6440     3.1538 O.2          1    LIG   0.0000
   2 C2           0.4862    -1.0594     2.0609 C.2          1    LIG   0.0000
   3 N3           0.3150    -0.1863     1.0191 N.am         1    LIG   0.0000
   4 C4           1.0000     1.0000     1.0000 C.2          1    LIG   0.0000
   5 C5           0.3500     2.1257     0.9818 C.2          1    LIG   0.0000
   6 C6           1.0752     3.3816     0.9616 C.ar         1    LIG   0.0000
   7 C7           0.3755     4.5841     0.9427 C.ar         1    LIG   0.0000
   8 C8           1.0765     5.7850     0.9234 C.ar         1    LIG   0.0000
   9 C9           2.4681     5.7637     0.9240 C.ar         1    LIG   0.0000
  10 N10          3.1209     4.5922     0.9429 N.ar         1    LIG   0.0000
  11 C11          2.4655     3.4220     0.9609 C.ar         1    LIG   0.0000
  12 C12          2.4500     1.0000     1.0000 C.2          1    LIG   0.0000
  13 N13          3.2134     1.0173     2.0639 N.2          1    LIG   0.0000
  14 C14          4.4867     1.0085     1.5826 C.2          1    LIG   0.0000
  15 C15          5.6963     1.0199     2.3824 C.ar         1    LIG   0.0000
  16 C16          5.6120     1.0416     3.7706 C.ar         1    LIG   0.0000
  17 C17          6.7721     1.0516     4.5376 C.ar         1    LIG   0.0000
  18 C18          8.0169     1.0412     3.9167 C.ar         1    LIG   0.0000
  19 C19          8.1008     1.0209     2.5285 C.ar         1    LIG   0.0000
  20 C20          6.9414     1.0103     1.7615 C.ar         1    LIG   0.0000
  21 Br21         7.0607     0.9813    -0.1951 Br           1    LIG   0.0000
  22 N22          4.4315     0.9883     0.2770 N.2          1    LIG   0.0000
  23 O23          3.2153     0.9828    -0.0644 O.2          1    LIG   0.0000
  24 C24          0.3414    -2.4859     1.8427 C.ar         1    LIG   0.0000
  25 C25          1.2167    -3.3697     2.4652 C.ar         1    LIG   0.0000
  26 C26          1.0710    -4.7361     2.2498 C.ar         1    LIG   0.0000
  27 C27          0.0578    -5.2059     1.4195 C.ar         1    LIG   0.0000
  28 C28         -0.8132    -4.3148     0.8013 C.ar         1    LIG   0.0000
  29 C29         -0.6739    -2.9465     1.0109 C.ar         1    LIG   0.0000
  30 H           -0.3100    -0.4149     0.2727 H            1    LIG   0.0000
  31 H           -0.6500     2.1257     0.9818 H            1    LIG   0.0000
  32 H           -0.6245     4.5847     0.9430 H            1    LIG   0.0000
  33 H            0.5852     6.6559     0.9093 H            1    LIG   0.0000
  34 H            2.9812     6.6219     0.9103 H            1    LIG   0.0000
  35 H            2.9837     2.5668     0.9740 H            1    LIG   0.0000
  36 H            4.7173     1.0499     4.2172 H            1    LIG   0.0000
  37 H            6.7115     1.0663     5.5357 H            1    LIG   0.0000
  38 H            8.8511     1.0484     4.4682 H            1    LIG   0.0000
  39 H            8.9955     1.0139     2.0820 H            1    LIG   0.0000
  40 H            1.9428    -3.0265     3.0611 H            1    LIG   0.0000
  41 H            1.6944    -5.3811     2.6918 H            1    LIG   0.0000
  42 H           -0.0445    -6.1888     1.2666 H            1    LIG   0.0000
  43 H           -1.5398    -4.6578     0.2060 H            1    LIG   0.0000
  44 H           -1.2968    -2.3013     0.5684 H            1    LIG   0.0000
@<TRIPOS>BOND
   1        1        2 2
   2        2        3 am
   3        3        4 1
   4        4        5 2
   5        5        6 1
   6        6        7 ar
   7        7        8 ar
   8        8        9 ar
   9        9       10 ar
  10       10       11 ar
  11       11        6 ar
  12        4       12 1
  13       12       13 2
  14       13       14 1
  15       14       15 1
  16       15       16 ar
  17       16       17 ar
  18       17       18 ar
  19       18       19 ar
  20       19       20 ar
  21       20       15 ar
  22       20       21 1
  23       14       22 2
  24       22       23 1
  25       23       12 1
  26        2       24 1
  27       24       25 ar
  28       25       26 ar
  29       26       27 ar
  30       27       28 ar
  31       28       29 ar
  32       29       24 ar
  33        3       30 1
  34        5       31 1
  35        7       32 1
  36        8       33 1
  37        9       34 1
  38       11       35 1
  39       16       36 1
  40       17       37 1
  41       18       38 1
  42       19       39 1
  43       25       40 1
  44       26       41 1
  45       27       42 1
  46       28       43 1
  47       29       44 1

@<TRIPOS>MOLECULE

  44   47
SMALL
USER_CHARGES
@<TRIPOS>ATOM
   1 O1           0.4669    -2.3828     1.3557 O.2          1    LIG   0.0000
   2 C2           0.8623    -1.2836     1.6302 C.2          1    LIG   0.0000
   3 N3           0.3150    -0.1863     1.0191 N.am         1    LIG   0.0000
   4 C4           1.0000     1.0000     1.0000 C.2          1    LIG   0.0000
   5 C5           0.3500     2.1257     0.9818 C.2          1    LIG   0.0000
   6 C6           1.0752     3.3816     0.9616 C.ar         1    LIG   0.0000
   7 C7           0.3755     4.5841     0.9427 C.ar         1    LIG   0.0000
   8 C8           1.0765     5.7850     0.9234 C.ar         1    LIG   0.0000
   9 C9           2.4681     5.7637     0.9240 C.ar         1    LIG   0.0000
  10 N10          3.1209     4.5922     0.9429 N.ar         1    LIG   0.0000
  11 C11          2.4655     3.4220     0.9609 C.ar         1    LIG   0.0000
  12 C12          2.4500     1.0000     1.0000 C.2          1    LIG   0.0000
  13 N13          3.2134     1.0173     2.0639 N.2          1    LIG   0.0000
  14 C14          4.4867     1.0085     1.5826 C.2          1    LIG   0.0000
  15 C15          5.6963     1.0199     2.3824 C.ar         1    LIG   0.0000
  16 C16          6.2754    -0.1790     2.7847 C.ar         1    LIG   0.0000
  17 C17          7.4360    -0.1680     3.5510 C.ar         1    LIG   0.0000
  18 C18          8.0172     1.0419     3.9163 C.ar         1    LIG   0.0000
  19 C19          7.4371     2.2406     3.5149 C.ar         1    LIG   0.0000
  20 C20          6.2773     2.2301     2.7485 C.ar         1    LIG   0.0000
  21 Br21         5.4607     3.9202     2.1830 Br           1    LIG   0.0000
  22 N22          4.4315     0.9883     0.2770 N.2          1    LIG   0.0000
  23 O23          3.2153     0.9828    -0.0644 O.2          1    LIG   0.0000
  24 C24          1.9197    -1.1166     2.6086 C.ar         1    LIG   0.0000
  25 C25          2.9897    -2.0052     2.6240 C.ar         1    LIG   0.0000
  26 C26          3.9990    -1.8381     3.5664 C.ar         1    LIG   0.0000
  27 C27          3.9319    -0.7907     4.4802 C.ar         1    LIG   0.0000
  28 C28          2.8582     0.0934     4.4574 C.ar         1    LIG   0.0000
  29 C29          1.8441    -0.0671     3.5185 C.ar         1    LIG   0.0000
  30 H           -0.5845    -0.2513     0.5871 H            1    LIG   0.0000
  31 H           -0.6500     2.1257     0.9818 H            1    LIG   0.0000
  32 H           -0.6245     4.5847     0.9430 H            1    LIG   0.0000
  33 H            0.5852     6.6559     0.9093 H            1    LIG   0.0000
  34 H            2.9812     6.6219     0.9103 H            1    LIG   0.0000
  35 H            2.9837     2.5668     0.9740 H            1    LIG   0.0000
  36 H            5.8573    -1.0489     2.5230 H            1    LIG   0.0000
  37 H            7.8528    -1.0300     3.8394 H            1    LIG   0.0000
  38 H            8.8517     1.0498     4.4672 H            1    LIG   0.0000
  39 H            7.8546     3.1104     3.7777 H            1    LIG   0.0000
  40 H            3.0329    -2.7559     1.9648 H            1    LIG   0.0000
  41 H            4.7731    -2.4708     3.5872 H            1    LIG   0.0000
  42 H            4.6590    -0.6731     5.1565 H            1    LIG   0.0000
  43 H            2.8152     0.8445     5.1161 H            1    LIG   0.0000
  44 H            1.0695     0.5650     3.4979 H            1    LIG   0.0000
@<TRIPOS>BOND
   1        1        2 2
   2        2        3 am
   3        3        4 1
   4        4        5 2
   5        5        6 1
   6        6        7 ar
   7        7        8 ar
   8        8        9 ar
   9        9       10 ar
  10       10       11 ar
  11       11        6 ar
  12        4       12 1
  13       12       13 2
  14       13       14 1
  15       14       15 1
  16       15       16 ar
  17       16       17 ar
  18       17       18 ar
  19       18       19 ar
  20       19       20 ar
  21       20       15 ar
  22       20       21 1
  23       14       22 2
  24       22       23 1
  25       23       12 1
  26        2       24 1
  27       24       25 ar
  28       25       26 ar
  29       26       27 ar
  30       27       28 ar
  31       28       29 ar
  32       29       24 ar
  33        3       30 1
  34        5       31 1
  35        7       32 1
  36        8       33 1
  37        9       34 1
  38       11       35 1
  39       16       36 1
  40       17       37 1
  41       18       38 1
  42       19       39 1
  43       25       40 1
  44       26       41 1
  45       27       42 1
  46       28       43 1
  47       29       44 1

@<TRIPOS>MOLECULE

  44   47
SMALL
USER_CHARGES
@<TRIPOS>ATOM
   1 O1           0.7561    -0.7126    -1.0997 O.2          1    LIG   0.0000
   2 C2           0.4862    -1.0926     0.0061 C.2          1    LIG   0.0000
   3 N3           0.3150    -0.1863     1.0191 N.am         1    LIG   0.0000
   4 C4           1.0000     1.0000     1.0000 C.2          1    LIG   0.0000
   5 C5           0.3500     2.1257     0.9818 C.2          1    LIG   0.0000
   6 C6           1.0752     3.3816     0.9616 C.ar         1    LIG   0.0000
   7 C7           2.3262     3.4482     0.3563 C.ar         1    LIG   0.0000
   8 C8           3.0166     4.6553     0.3400 C.ar         1    LIG   0.0000
   9 C9           2.4433     5.7781     0.9297 C.ar         1    LIG   0.0000
  10 N10          1.2358     5.6899     1.5068 N.ar         1    LIG   0.0000
  11 C11          0.5524     4.5360     1.5349 C.ar         1    LIG   0.0000
  12 C12          2.4500     1.0000     1.0000 C.2          1    LIG   0.0000
  13 N13          3.2134     1.0173     2.0639 N.2          1    LIG   0.0000
  14 C14          4.4867     1.0085     1.5826 C.2          1    LIG   0.0000
  15 C15          5.6963     1.0199     2.3824 C.ar         1    LIG   0.0000
  16 C16          6.9408     1.0092     1.7613 C.ar         1    LIG   0.0000
  17 C17          8.1009     1.0211     2.5284 C.ar         1    LIG   0.0000
  18 C18          8.0168     1.0424     3.9168 C.ar         1    LIG   0.0000
  19 C19          6.7722     1.0518     4.5375 C.ar         1    LIG   0.0000
  20 C20          5.6124     1.0405     3.7711 C.ar         1    LIG   0.0000
  21 Br21         3.8586     1.0541     4.6469 Br           1    LIG   0.0000
  22 N22          4.4315     0.9883     0.2770 N.2          1    LIG   0.0000
  23 O23          3.2153     0.9828    -0.0644 O.2          1    LIG   0.0000
  24 C24          0.3414    -2.5112     0.2702 C.ar         1    LIG   0.0000
  25 C25          0.0993    -3.3863    -0.7837 C.ar         1    LIG   0.0000
  26 C26         -0.0390    -4.7452    -0.5212 C.ar         1    LIG   0.0000
  27 C27          0.0653    -5.2164     0.7840 C.ar         1    LIG   0.0000
  28 C28          0.3078    -4.3342     1.8318 C.ar         1    LIG   0.0000
  29 C29          0.4468    -2.9733     1.5780 C.ar         1    LIG   0.0000
  30 H           -0.3100    -0.3907     1.7725 H            1    LIG   0.0000
  31 H           -0.6500     2.1257     0.9818 H            1    LIG   0.0000
  32 H            2.7261     2.6338    -0.0640 H            1    LIG   0.0000
  33 H            3.9167     4.7160    -0.0915 H            1    LIG   0.0000
  34 H            2.9318     6.6506     0.9231 H            1    LIG   0.0000
  35 H           -0.3454     4.5053     1.9743 H            1    LIG   0.0000
  36 H            7.0015     0.9930     0.7633 H            1    LIG   0.0000
  37 H            8.9956     1.0143     2.0818 H            1    LIG   0.0000
  38 H            8.8510     1.0510     4.4683 H            1    LIG   0.0000
  39 H            6.7116     1.0667     5.5355 H            1    LIG   0.0000
  40 H            0.0255    -3.0421    -1.7197 H            1    LIG   0.0000
  41 H           -0.2135    -5.3838    -1.2707 H            1    LIG   0.0000
  42 H           -0.0345    -6.1939     0.9696 H            1    LIG   0.0000
  43 H            0.3823    -4.6782     2.7678 H            1    LIG   0.0000
  44 H            0.6205    -2.3344     2.3275 H            1    LIG   0.0000
@<TRIPOS>BOND
   1        1        2 2
   2        2        3 am
   3        3        4 1
   4        4        5 2
   5        5        6 1
   6        6        7 ar
   7        7        8 ar
   8        8        9 ar
   9        9       10 ar
  10       10       11 ar
  11       11        6 ar
  12        4       12 1
  13       12       13 2
  14       13       14 1
  15       14       15 1
  16       15       16 ar
  17       16       17 ar
  18       17       18 ar
  19       18       19 ar
  20       19       20 ar
  21       20       15 ar
  22       20       21 1
  23       14       22 2
  24       22       23 1
  25       23       12 1
  26        2       24 1
  27       24       25 ar
  28       25       26 ar
  29       26       27 ar
  30       27       28 ar
  31       28       29 ar
  32       29       24 ar
  33        3       30 1
  34        5       31 1
  35        7       32 1
  36        8       33 1
  37        9       34 1
  38       11       35 1
  39       16       36 1
  40       17       37 1
  41       18       38 1
  42       19       39 1
  43       25       40 1
  44       26       41 1
  45       27       42 1
  46       28       43 1
  47       29       44 1

@<TRIPOS>MOLECULE

  44   47
SMALL
USER_CHARGES
@<TRIPOS>ATOM
   1 O1          -1.7433    -1.0362     0.9742 O.2          1    LIG   0.0000
   2 C2          -0.9930    -0.2155     1.4255 C.2          1    LIG   0.0000
   3 N3           0.3150    -0.1863     1.0191 N.am         1    LIG   0.0000
   4 C4           1.0000     1.0000     1.0000 C.2          1    LIG   0.0000
   5 C5           0.3500     2.1257     0.9818 C.2          1    LIG   0.0000
   6 C6           1.0752     3.3816     0.9616 C.ar         1    LIG   0.0000
   7 C7           2.3262     3.4482     0.3563 C.ar         1    LIG   0.0000
   8 C8           3.0166     4.6553     0.3400 C.ar         1    LIG   0.0000
   9 C9           2.4433     5.7781     0.9297 C.ar         1    LIG   0.0000
  10 N10          1.2358     5.6899     1.5068 N.ar         1    LIG   0.0000
  11 C11          0.5524     4.5360     1.5349 C.ar         1    LIG   0.0000
  12 C12          2.4500     1.0000     1.0000 C.2          1    LIG   0.0000
  13 N13          3.2134     0.9827    -0.0639 N.2          1    LIG   0.0000
  14 C14          4.4867     0.9915     0.4174 C.2          1    LIG   0.0000
  15 C15          5.6963     0.9801    -0.3824 C.ar         1    LIG   0.0000
  16 C16          5.6120     0.9584    -1.7706 C.ar         1    LIG   0.0000
  17 C17          6.7721     0.9484    -2.5376 C.ar         1    LIG   0.0000
  18 C18          8.0169     0.9588    -1.9167 C.ar         1    LIG   0.0000
  19 C19          8.1008     0.9791    -0.5285 C.ar         1    LIG   0.0000
  20 C20          6.9414     0.9897     0.2385 C.ar         1    LIG   0.0000
  21 Br21         7.0607     1.0187     2.1951 Br           1    LIG   0.0000
  22 N22          4.4315     1.0117     1.7230 N.2          1    LIG   0.0000
  23 O23          3.2153     1.0172     2.0644 O.2          1    LIG   0.0000
  24 C24         -1.4710     0.7453     2.4010 C.ar         1    LIG   0.0000
  25 C25         -2.7316     1.3128     2.2476 C.ar         1    LIG   0.0000
  26 C26         -3.1817     2.2340     3.1875 C.ar         1    LIG   0.0000
  27 C27         -2.3738     2.5786     4.2669 C.ar         1    LIG   0.0000
  28 C28         -1.1145     2.0059     4.4126 C.ar         1    LIG   0.0000
  29 C29         -0.6565     1.0842     3.4765 C.ar         1    LIG   0.0000
  30 H            0.7698    -1.0309     0.7365 H            1    LIG   0.0000
  31 H           -0.6500     2.1257     0.9818 H            1    LIG   0.0000
  32 H            2.7261     2.6338    -0.0640 H            1    LIG   0.0000
  33 H            3.9167     4.7160    -0.0915 H            1    LIG   0.0000
  34 H            2.9318     6.6506     0.9231 H            1    LIG   0.0000
  35 H           -0.3454     4.5053     1.9743 H            1    LIG   0.0000
  36 H            4.7173     0.9501    -2.2172 H            1    LIG   0.0000
  37 H            6.7115     0.9337    -3.5357 H            1    LIG   0.0000
  38 H            8.8511     0.9516    -2.4682 H            1    LIG   0.0000
  39 H            8.9955     0.9861    -0.0820 H            1    LIG   0.0000
  40 H           -3.3080     1.0613     1.4701 H            1    LIG   0.0000
  41 H           -4.0861     2.6487     3.0876 H            1    LIG   0.0000
  42 H           -2.7002     3.2412     4.9411 H            1    LIG   0.0000
  43 H           -0.5383     2.2568     5.1904 H            1    LIG   0.0000
  44 H            0.2482     0.6698     3.5758 H            1    LIG   0.0000
@<TRIPOS>BOND
   1        1        2 2
   2        2        3 am
   3        3        4 1
   4        4        5 2
   5        5        6 1
   6        6        7 ar
   7        7        8 ar
   8        8        9 ar
   9        9       10 ar
  10       10       11 ar
  11       11        6 ar
  12        4       12 1
  13       12       13 2
  14       13       14 1
  15       14       15 1
  16       15       16 ar
  17       16       17 ar
  18       17       18 ar
  19       18       19 ar
  20       19       20 ar
  21       20       15 ar
  22       20       21 1
  23       14       22 2
  24       22       23 1
  25       23       12 1
  26        2       24 1
  27       24       25 ar
  28       25       26 ar
  29       26       27 ar
  30       27       28 ar
  31       28       29 ar
  32       29       24 ar
  33        3       30 1
  34        5       31 1
  35        7       32 1
  36        8       33 1
  37        9       34 1
  38       11       35 1
  39       16       36 1
  40       17       37 1
  41       18       38 1
  42       19       39 1
  43       25       40 1
  44       26       41 1
  45       27       42 1
  46       28       43 1
  47       29       44 1

@<TRIPOS>MOLECULE

  44   47
SMALL
USER_CHARGES
@<TRIPOS>ATOM
   1 O1          -1.6550     0.7052     0.4851 O.2          1    LIG   0.0000
   2 C2          -1.0550    -0.1863     1.0191 C.2          1    LIG   0.0000
   3 N3           0.3150    -0.1863     1.0191 N.am         1    LIG   0.0000
   4 C4           1.0000     1.0000     1.0000 C.2          1    LIG   0.0000
   5 C5           0.3500     2.1257     0.9818 C.2          1    LIG   0.0000
   6 C6           1.0752     3.3816     0.9616 C.ar         1    LIG   0.0000
   7 C7           2.3267     3.4674     1.5634 C.ar         1    LIG   0.0000
   8 C8           3.0172     4.6743     1.5406 C.ar         1    LIG   0.0000
   9 C9           2.4441     5.7774     0.9146 C.ar         1    LIG   0.0000
  10 N10          1.2366     5.6706     0.3406 N.ar         1    LIG   0.0000
  11 C11          0.5524     4.5169     0.3512 C.ar         1    LIG   0.0000
  12 C12          2.4500     1.0000     1.0000 C.2          1    LIG   0.0000
  13 N13          3.2134     0.9827    -0.0639 N.2          1    LIG   0.0000
  14 C14          4.4867     0.9915     0.4174 C.2          1    LIG   0.0000
  15 C15          5.6963     0.9801    -0.3824 C.ar         1    LIG   0.0000
  16 C16          6.2774    -0.2299    -0.7473 C.ar         1    LIG   0.0000
  17 C17          7.4370    -0.2407    -1.5151 C.ar         1    LIG   0.0000
  18 C18          8.0166     0.9582    -1.9172 C.ar         1    LIG   0.0000
  19 C19          7.4359     2.1679    -1.5511 C.ar         1    LIG   0.0000
  20 C20          6.2765     2.1793    -0.7841 C.ar         1    LIG   0.0000
  21 Br21         5.4586     3.8847    -0.2689 Br           1    LIG   0.0000
  22 N22          4.4315     1.0117     1.7230 N.2          1    LIG   0.0000
  23 O23          3.2153     1.0172     2.0644 O.2          1    LIG   0.0000
  24 C24         -1.7801    -1.2637     1.6646 C.ar         1    LIG   0.0000
  25 C25         -3.1080    -1.0753     2.0337 C.ar         1    LIG   0.0000
  26 C26         -3.7956    -2.1138     2.6529 C.ar         1    LIG   0.0000
  27 C27         -3.1553    -3.3250     2.8967 C.ar         1    LIG   0.0000
  28 C28         -1.8272    -3.5047     2.5239 C.ar         1    LIG   0.0000
  29 C29         -1.1319    -2.4709     1.9047 C.ar         1    LIG   0.0000
  30 H            0.8150    -1.0522     1.0331 H            1    LIG   0.0000
  31 H           -0.6500     2.1257     0.9818 H            1    LIG   0.0000
  32 H            2.7269     2.6668     2.0093 H            1    LIG   0.0000
  33 H            3.9172     4.7490     1.9700 H            1    LIG   0.0000
  34 H            2.9326     6.6496     0.8928 H            1    LIG   0.0000
  35 H           -0.3460     4.4724    -0.0857 H            1    LIG   0.0000
  36 H            5.8615    -1.0919    -0.4575 H            1    LIG   0.0000
  37 H            7.8543    -1.1106    -1.7781 H            1    LIG   0.0000
  38 H            8.8503     0.9504    -2.4694 H            1    LIG   0.0000
  39 H            7.8526     3.0299    -1.8398 H            1    LIG   0.0000
  40 H           -3.5632    -0.2029     1.8558 H            1    LIG   0.0000
  41 H           -4.7504    -1.9900     2.9229 H            1    LIG   0.0000
  42 H           -3.6522    -4.0698     3.3420 H            1    LIG   0.0000
  43 H           -1.3720    -4.3773     2.7011 H            1    LIG   0.0000
  44 H           -0.1768    -2.5942     1.6352 H            1    LIG   0.0000
@<TRIPOS>BOND
   1        1        2 2
   2        2        3 am
   3        3        4 1
   4        4        5 2
   5        5        6 1
   6        6        7 ar
   7        7        8 ar
   8        8        9 ar
   9        9       10 ar
  10       10       11 ar
  11       11        6 ar
  12        4       12 1
  13       12       13 2
  14       13       14 1
  15       14       15 1
  16       15       16 ar
  17       16       17 ar
  18       17       18 ar
  19       18       19 ar
  20       19       20 ar
  21       20       15 ar
  22       20       21 1
  23       14       22 2
  24       22       23 1
  25       23       12 1
  26        2       24 1
  27       24       25 ar
  28       25       26 ar
  29       26       27 ar
  30       27       28 ar
  31       28       29 ar
  32       29       24 ar
  33        3       30 1
  34        5       31 1
  35        7       32 1
  36        8       33 1
  37        9       34 1
  38       11       35 1
  39       16       36 1
  40       17       37 1
  41       18       38 1
  42       19       39 1
  43       25       40 1
  44       26       41 1
  45       27       42 1
  46       28       43 1
  47       29       44 1

@<TRIPOS>MOLECULE

  44   47
SMALL
USER_CHARGES
@<TRIPOS>ATOM
   1 O1          -0.1138    -2.1317     0.0229 O.2          1    LIG   0.0000
   2 C2           0.4862    -1.0926     0.0061 C.2          1    LIG   0.0000
   3 N3           0.3150    -0.1863     1.0191 N.am         1    LIG   0.0000
   4 C4           1.0000     1.0000     1.0000 C.2          1    LIG   0.0000
   5 C5           0.3500     2.1257     0.9818 C.2          1    LIG   0.0000
   6 C6           1.0752     3.3816     0.9616 C.ar         1    LIG   0.0000
   7 C7           2.3267     3.4674     1.5634 C.ar         1    LIG   0.0000
   8 C8           3.0172     4.6743     1.5406 C.ar         1    LIG   0.0000
   9 C9           2.4441     5.7774     0.9146 C.ar         1    LIG   0.0000
  10 N10          1.2366     5.6706     0.3406 N.ar         1    LIG   0.0000
  11 C11          0.5524     4.5169     0.3512 C.ar         1    LIG   0.0000
  12 C12          2.4500     1.0000     1.0000 C.2          1    LIG   0.0000
  13 N13          3.2134     0.9827    -0.0639 N.2          1    LIG   0.0000
  14 C14          4.4867     0.9915     0.4174 C.2          1    LIG   0.0000
  15 C15          5.6963     0.9801    -0.3824 C.ar         1    LIG   0.0000
  16 C16          6.2774    -0.2299    -0.7473 C.ar         1    LIG   0.0000
  17 C17          7.4370    -0.2407    -1.5151 C.ar         1    LIG   0.0000
  18 C18          8.0166     0.9582    -1.9172 C.ar         1    LIG   0.0000
  19 C19          7.4359     2.1679    -1.5511 C.ar         1    LIG   0.0000
  20 C20          6.2765     2.1793    -0.7841 C.ar         1    LIG   0.0000
  21 Br21         5.4586     3.8847    -0.2689 Br           1    LIG   0.0000
  22 N22          4.4315     1.0117     1.7230 N.2          1    LIG   0.0000
  23 O23          3.2153     1.0172     2.0644 O.2          1    LIG   0.0000
  24 C24          1.3927    -0.7962    -1.0865 C.ar         1    LIG   0.0000
  25 C25          2.2051    -1.8023    -1.5990 C.ar         1    LIG   0.0000
  26 C26          3.0719    -1.5090    -2.6464 C.ar         1    LIG   0.0000
  27 C27          3.1198    -0.2208    -3.1707 C.ar         1    LIG   0.0000
  28 C28          2.3036     0.7791    -2.6522 C.ar         1    LIG   0.0000
  29 C29          1.4341     0.4943    -1.6040 C.ar         1    LIG   0.0000
  30 H           -0.3100    -0.3907     1.7725 H            1    LIG   0.0000
  31 H           -0.6500     2.1257     0.9818 H            1    LIG   0.0000
  32 H            2.7269     2.6668     2.0093 H            1    LIG   0.0000
  33 H            3.9172     4.7490     1.9700 H            1    LIG   0.0000
  34 H            2.9326     6.6496     0.8928 H            1    LIG   0.0000
  35 H           -0.3460     4.4724    -0.0857 H            1    LIG   0.0000
  36 H            5.8615    -1.0919    -0.4575 H            1    LIG   0.0000
  37 H            7.8543    -1.1106    -1.7781 H            1    LIG   0.0000
  38 H            8.8503     0.9504    -2.4694 H            1    LIG   0.0000
  39 H            7.8526     3.0299    -1.8398 H            1    LIG   0.0000
  40 H            2.1663    -2.7263    -1.2185 H            1    LIG   0.0000
  41 H            3.6610    -2.2240    -3.0229 H            1    LIG   0.0000
  42 H            3.7441    -0.0130    -3.9237 H            1    LIG   0.0000
  43 H            2.3417     1.7030    -3.0329 H            1    LIG   0.0000
  44 H            0.8455     1.2094    -1.2269 H            1    LIG   0.0000
@<TRIPOS>BOND
   1        1        2 2
   2        2        3 am
   3        3        4 1
   4        4        5 2
   5        5        6 1
   6        6        7 ar
   7        7        8 ar
   8        8        9 ar
   9        9       10 ar
  10       10       11 ar
  11       11        6 ar
  12        4       12 1
  13       12       13 2
  14       13       14 1
  15       14       15 1
  16       15       16 ar
  17       16       17 ar
  18       17       18 ar
  19       18       19 ar
  20       19       20 ar
  21       20       15 ar
  22       20       21 1
  23       14       22 2
  24       22       23 1
  25       23       12 1
  26        2       24 1
  27       24       25 ar
  28       25       26 ar
  29       26       27 ar
  30       27       28 ar
  31       28       29 ar
  32       29       24 ar
  33        3       30 1
  34        5       31 1
  35        7       32 1
  36        8       33 1
  37        9       34 1
  38       11       35 1
  39       16       36 1
  40       17       37 1
  41       18       38 1
  42       19       39 1
  43       25       40 1
  44       26       41 1
  45       27       42 1
  46       28       43 1
  47       29       44 1

@<TRIPOS>MOLECULE

  44   47
SMALL
USER_CHARGES
@<TRIPOS>ATOM
   1 O1           0.3664    -2.2397     1.8804 O.2          1    LIG   0.0000
   2 C2           0.4862    -1.0594     2.0609 C.2          1    LIG   0.0000
   3 N3           0.3150    -0.1863     1.0191 N.am         1    LIG   0.0000
   4 C4           1.0000     1.0000     1.0000 C.2          1    LIG   0.0000
   5 C5           0.3500     2.1257     0.9818 C.2          1    LIG   0.0000
   6 C6           1.0752     3.3816     0.9616 C.ar         1    LIG   0.0000
   7 C7           1.9442     3.6954     2.0019 C.ar         1    LIG   0.0000
   8 C8           2.6368     4.9010     1.9767 C.ar         1    LIG   0.0000
   9 C9           2.4491     5.7744     0.9095 C.ar         1    LIG   0.0000
  10 N10          1.6066     5.4501    -0.0824 N.ar         1    LIG   0.0000
  11 C11          0.9277     4.2932    -0.0785 C.ar         1    LIG   0.0000
  12 C12          2.4500     1.0000     1.0000 C.2          1    LIG   0.0000
  13 N13          3.2134    -0.0639     1.0173 N.2          1    LIG   0.0000
  14 C14          4.4867     0.4174     1.0085 C.2          1    LIG   0.0000
  15 C15          5.6963    -0.3824     1.0199 C.ar         1    LIG   0.0000
  16 C16          6.9408     0.2387     1.0092 C.ar         1    LIG   0.0000
  17 C17          8.1009    -0.5284     1.0211 C.ar         1    LIG   0.0000
  18 C18          8.0168    -1.9168     1.0424 C.ar         1    LIG   0.0000
  19 C19          6.7722    -2.5375     1.0518 C.ar         1    LIG   0.0000
  20 C20          5.6124    -1.7711     1.0405 C.ar         1    LIG   0.0000
  21 Br21         3.8586    -2.6469     1.0541 Br           1    LIG   0.0000
  22 N22          4.4315     1.7230     0.9883 N.2          1    LIG   0.0000
  23 O23          3.2153     2.0644     0.9828 O.2          1    LIG   0.0000
  24 C24          0.8124    -0.5573     3.3818 C.ar         1    LIG   0.0000
  25 C25          1.7376    -1.2369     4.1673 C.ar         1    LIG   0.0000
  26 C26          2.0439    -0.7486     5.4332 C.ar         1    LIG   0.0000
  27 C27          1.4274     0.4078     5.9013 C.ar         1    LIG   0.0000
  28 C28          0.5035     1.0812     5.1088 C.ar         1    LIG   0.0000
  29 C29          0.1910     0.5991     3.8417 C.ar         1    LIG   0.0000
  30 H           -0.3100    -0.4149     0.2727 H            1    LIG   0.0000
  31 H           -0.6500     2.1257     0.9818 H            1    LIG   0.0000
  32 H            2.0699     3.0583     2.7624 H            1    LIG   0.0000
  33 H            3.2639     5.1383     2.7187 H            1    LIG   0.0000
  34 H            2.9426     6.6437     0.8821 H            1    LIG   0.0000
  35 H            0.3069     4.0833    -0.8339 H            1    LIG   0.0000
  36 H            7.0015     1.2367     0.9930 H            1    LIG   0.0000
  37 H            8.9956    -0.0818     1.0143 H            1    LIG   0.0000
  38 H            8.8510    -2.4683     1.0510 H            1    LIG   0.0000
  39 H            6.7116    -3.5355     1.0667 H            1    LIG   0.0000
  40 H            2.1777    -2.0673     3.8257 H            1    LIG   0.0000
  41 H            2.7073    -1.2288     6.0070 H            1    LIG   0.0000
  42 H            1.6497     0.7565     6.8119 H            1    LIG   0.0000
  43 H            0.0639     1.9120     5.4500 H            1    LIG   0.0000
  44 H           -0.4729     1.0787     3.2679 H            1    LIG   0.0000
@<TRIPOS>BOND
   1        1        2 2
   2        2        3 am
   3        3        4 1
   4        4        5 2
   5        5        6 1
   6        6        7 ar
   7        7        8 ar
   8        8        9 ar
   9        9       10 ar
  10       10       11 ar
  11       11        6 ar
  12        4       12 1
  13       12       13 2
  14       13       14 1
  15       14       15 1
  16       15       16 ar
  17       16       17 ar
  18       17       18 ar
  19       18       19 ar
  20       19       20 ar
  21       20       15 ar
  22       20       21 1
  23       14       22 2
  24       22       23 1
  25       23       12 1
  26        2       24 1
  27       24       25 ar
  28       25       26 ar
  29       26       27 ar
  30       27       28 ar
  31       28       29 ar
  32       29       24 ar
  33        3       30 1
  34        5       31 1
  35        7       32 1
  36        8       33 1
  37        9       34 1
  38       11       35 1
  39       16       36 1
  40       17       37 1
  41       18       38 1
  42       19       39 1
  43       25       40 1
  44       26       41 1
  45       27       42 1
  46       28       43 1
  47       29       44 1

@<TRIPOS>MOLECULE

  44   47
SMALL
USER_CHARGES
@<TRIPOS>ATOM
   1 O1          -0.2925    -1.9689    -0.1700 O.2          1    LIG   0.0000
   2 C2          -0.0275    -0.7986    -0.1576 C.2          1    LIG   0.0000
   3 N3           0.3150    -0.1863     1.0191 N.am         1    LIG   0.0000
   4 C4           1.0000     1.0000     1.0000 C.2          1    LIG   0.0000
   5 C5           0.3500     2.1257     0.9818 C.2          1    LIG   0.0000
   6 C6           1.0752     3.3816     0.9616 C.ar         1    LIG   0.0000
   7 C7           1.4215     3.9997     2.1590 C.ar         1    LIG   0.0000
   8 C8           2.1169     5.2037     2.1331 C.ar         1    LIG   0.0000
   9 C9           2.4558     5.7705     0.9079 C.ar         1    LIG   0.0000
  10 N10          2.1117     5.1560    -0.2335 N.ar         1    LIG   0.0000
  11 C11          1.4403     3.9948    -0.2323 C.ar         1    LIG   0.0000
  12 C12          2.4500     1.0000     1.0000 C.2          1    LIG   0.0000
  13 N13          3.2134    -0.0639     1.0173 N.2          1    LIG   0.0000
  14 C14          4.4867     0.4174     1.0085 C.2          1    LIG   0.0000
  15 C15          5.6963    -0.3824     1.0199 C.ar         1    LIG   0.0000
  16 C16          6.9011     0.1845     1.4222 C.ar         1    LIG   0.0000
  17 C17          8.0610    -0.5829     1.4339 C.ar         1    LIG   0.0000
  18 C18          8.0167    -1.9170     1.0424 C.ar         1    LIG   0.0000
  19 C19          6.8121    -2.4831     0.6390 C.ar         1    LIG   0.0000
  20 C20          5.6523    -1.7166     0.6276 C.ar         1    LIG   0.0000
  21 Br21         3.9548    -2.5156     0.0592 Br           1    LIG   0.0000
  22 N22          4.4315     1.7230     0.9883 N.2          1    LIG   0.0000
  23 O23          3.2153     2.0644     0.9828 O.2          1    LIG   0.0000
  24 C24         -0.0697    -0.0324    -1.3882 C.ar         1    LIG   0.0000
  25 C25          0.4059    -0.5970    -2.5671 C.ar         1    LIG   0.0000
  26 C26          0.3622     0.1453    -3.7426 C.ar         1    LIG   0.0000
  27 C27         -0.1534     1.4378    -3.7312 C.ar         1    LIG   0.0000
  28 C28         -0.6272     1.9943    -2.5476 C.ar         1    LIG   0.0000
  29 C29         -0.5865     1.2589    -1.3673 C.ar         1    LIG   0.0000
  30 H            0.0650    -0.6053     1.8920 H            1    LIG   0.0000
  31 H           -0.6500     2.1257     0.9818 H            1    LIG   0.0000
  32 H            1.1721     3.5811     3.0322 H            1    LIG   0.0000
  33 H            2.3712     5.6581     2.9868 H            1    LIG   0.0000
  34 H            2.9558     6.6360     0.8787 H            1    LIG   0.0000
  35 H            1.1989     3.5639    -1.1019 H            1    LIG   0.0000
  36 H            6.9333     1.1437     1.7028 H            1    LIG   0.0000
  37 H            8.9270    -0.1755     1.7239 H            1    LIG   0.0000
  38 H            8.8507    -2.4687     1.0509 H            1    LIG   0.0000
  39 H            6.7801    -3.4420     0.3571 H            1    LIG   0.0000
  40 H            0.7751    -1.5263    -2.5696 H            1    LIG   0.0000
  41 H            0.7014    -0.2500    -4.5962 H            1    LIG   0.0000
  42 H           -0.1836     1.9690    -4.5779 H            1    LIG   0.0000
  43 H           -0.9971     2.9234    -2.5452 H            1    LIG   0.0000
  44 H           -0.9250     1.6543    -0.5134 H            1    LIG   0.0000
@<TRIPOS>BOND
   1        1        2 2
   2        2        3 am
   3        3        4 1
   4        4        5 2
   5        5        6 1
   6        6        7 ar
   7        7        8 ar
   8        8        9 ar
   9        9       10 ar
  10       10       11 ar
  11       11        6 ar
  12        4       12 1
  13       12       13 2
  14       13       14 1
  15       14       15 1
  16       15       16 ar
  17       16       17 ar
  18       17       18 ar
  19       18       19 ar
  20       19       20 ar
  21       20       15 ar
  22       20       21 1
  23       14       22 2
  24       22       23 1
  25       23       12 1
  26        2       24 1
  27       24       25 ar
  28       25       26 ar
  29       26       27 ar
  30       27       28 ar
  31       28       29 ar
  32       29       24 ar
  33        3       30 1
  34        5       31 1
  35        7       32 1
  36        8       33 1
  37        9       34 1
  38       11       35 1
  39       16       36 1
  40       17       37 1
  41       18       38 1
  42       19       39 1
  43       25       40 1
  44       26       41 1
  45       27       42 1
  46       28       43 1
  47       29       44 1

@<TRIPOS>MOLECULE

  44   47
SMALL
USER_CHARGES
@<TRIPOS>ATOM
   1 O1          -1.7166    -1.0554     0.7395 O.2          1    LIG   0.0000
   2 C2          -1.0394    -0.1920     1.2253 C.2          1    LIG   0.0000
   3 N3           0.3150    -0.1863     1.0191 N.am         1    LIG   0.0000
   4 C4           1.0000     1.0000     1.0000 C.2          1    LIG   0.0000
   5 C5           0.3500     2.1257     0.9818 C.2          1    LIG   0.0000
   6 C6           1.0752     3.3816     0.9616 C.ar         1    LIG   0.0000
   7 C7           0.8987     4.2989     1.9927 C.ar         1    LIG   0.0000
   8 C8           1.5969     5.5013     1.9677 C.ar         1    LIG   0.0000
   9 C9           2.4622     5.7668     0.9105 C.ar         1    LIG   0.0000
  10 N10          2.6166     4.8671    -0.0721 N.ar         1    LIG   0.0000
  11 C11          1.9529     3.7014    -0.0690 C.ar         1    LIG   0.0000
  12 C12          2.4500     1.0000     1.0000 C.2          1    LIG   0.0000
  13 N13          3.2134    -0.0639     1.0173 N.2          1    LIG   0.0000
  14 C14          4.4867     0.4174     1.0085 C.2          1    LIG   0.0000
  15 C15          5.6963    -0.3824     1.0199 C.ar         1    LIG   0.0000
  16 C16          6.3928    -0.5731     2.2087 C.ar         1    LIG   0.0000
  17 C17          7.5524    -1.3409     2.2198 C.ar         1    LIG   0.0000
  18 C18          8.0166    -1.9172     1.0419 C.ar         1    LIG   0.0000
  19 C19          7.3205    -1.7253    -0.1469 C.ar         1    LIG   0.0000
  20 C20          6.1611    -0.9583    -0.1583 C.ar         1    LIG   0.0000
  21 Br21         5.1806    -0.6886    -1.8343 Br           1    LIG   0.0000
  22 N22          4.4315     1.7230     0.9883 N.2          1    LIG   0.0000
  23 O23          3.2153     2.0644     0.9828 O.2          1    LIG   0.0000
  24 C24         -1.6547     0.8454     2.0306 C.ar         1    LIG   0.0000
  25 C25         -3.0176     1.0948     1.9075 C.ar         1    LIG   0.0000
  26 C26         -3.5992     2.0920     2.6832 C.ar         1    LIG   0.0000
  27 C27         -2.8196     2.8277     3.5706 C.ar         1    LIG   0.0000
  28 C28         -1.4573     2.5714     3.6874 C.ar         1    LIG   0.0000
  29 C29         -0.8675     1.5760     2.9147 C.ar         1    LIG   0.0000
  30 H            0.8036    -1.0481     0.8826 H            1    LIG   0.0000
  31 H           -0.6500     2.1257     0.9818 H            1    LIG   0.0000
  32 H            0.2741     4.0950     2.7465 H            1    LIG   0.0000
  33 H            1.4784     6.1690     2.7026 H            1    LIG   0.0000
  34 H            2.9689     6.6286     0.8834 H            1    LIG   0.0000
  35 H            2.0911     3.0533    -0.8179 H            1    LIG   0.0000
  36 H            6.0598    -0.1581     3.0555 H            1    LIG   0.0000
  37 H            8.0526    -1.4786     3.0746 H            1    LIG   0.0000
  38 H            8.8503    -2.4694     1.0498 H            1    LIG   0.0000
  39 H            7.6543    -2.1392    -0.9938 H            1    LIG   0.0000
  40 H           -3.5731     0.5629     1.2684 H            1    LIG   0.0000
  41 H           -4.5781     2.2805     2.6032 H            1    LIG   0.0000
  42 H           -3.2406     3.5440     4.1270 H            1    LIG   0.0000
  43 H           -0.9018     3.1027     4.3269 H            1    LIG   0.0000
  44 H            0.1115     1.3879     2.9940 H            1    LIG   0.0000
@<TRIPOS>BOND
   1        1        2 2
   2        2        3 am
   3        3        4 1
   4        4        5 2
   5        5        6 1
   6        6        7 ar
   7        7        8 ar
   8        8        9 ar
   9        9       10 ar
  10       10       11 ar
  11       11        6 ar
  12        4       12 1
  13       12       13 2
  14       13       14 1
  15       14       15 1
  16       15       16 ar
  17       16       17 ar
  18       17       18 ar
  19       18       19 ar
  20       19       20 ar
  21       20       15 ar
  22       20       21 1
  23       14       22 2
  24       22       23 1
  25       23       12 1
  26        2       24 1
  27       24       25 ar
  28       25       26 ar
  29       26       27 ar
  30       27       28 ar
  31       28       29 ar
  32       29       24 ar
  33        3       30 1
  34        5       31 1
  35        7       32 1
  36        8       33 1
  37        9       34 1
  38       11       35 1
  39       16       36 1
  40       17       37 1
  41       18       38 1
  42       19       39 1
  43       25       40 1
  44       26       41 1
  45       27       42 1
  46       28       43 1
  47       29       44 1

@<TRIPOS>MOLECULE

  44   47
SMALL
USER_CHARGES
@<TRIPOS>ATOM
   1 O1          -1.6967    -1.1400     0.9520 O.2          1    LIG   0.0000
   2 C2          -0.9930    -0.2286     0.6140 C.2          1    LIG   0.0000
   3 N3           0.3150    -0.1863     1.0191 N.am         1    LIG   0.0000
   4 C4           1.0000     1.0000     1.0000 C.2          1    LIG   0.0000
   5 C5           0.3500     2.1257     0.9818 C.2          1    LIG   0.0000
   6 C6           1.0752     3.3816     0.9616 C.ar         1    LIG   0.0000
   7 C7           0.8979     4.2657    -0.0981 C.ar         1    LIG   0.0000
   8 C8           1.5959     5.4683    -0.1118 C.ar         1    LIG   0.0000
   9 C9           2.4609     5.7680     0.9366 C.ar         1    LIG   0.0000
  10 N10          2.6153     4.9005     1.9477 N.ar         1    LIG   0.0000
  11 C11          1.9529     3.7345     1.9813 C.ar         1    LIG   0.0000
  12 C12          2.4500     1.0000     1.0000 C.2          1    LIG   0.0000
  13 N13          3.2134     0.0700     0.4831 N.2          1    LIG   0.0000
  14 C14          4.4867     0.4912     0.7161 C.2          1    LIG   0.0000
  15 C15          5.6963    -0.2071     0.3261 C.ar         1    LIG   0.0000
  16 C16          5.6120    -1.4202    -0.3493 C.ar         1    LIG   0.0000
  17 C17          6.7721    -2.0895    -0.7241 C.ar         1    LIG   0.0000
  18 C18          8.0169    -1.5466    -0.4226 C.ar         1    LIG   0.0000
  19 C19          8.1008    -0.3342     0.2538 C.ar         1    LIG   0.0000
  20 C20          6.9414     0.3354     0.6282 C.ar         1    LIG   0.0000
  21 Br21         7.0607     2.0443     1.5813 Br           1    LIG   0.0000
  22 N22          4.4315     1.6320     1.3513 N.2          1    LIG   0.0000
  23 O23          3.2153     1.9304     1.5173 O.2          1    LIG   0.0000
  24 C24         -1.5273     0.8280    -0.2234 C.ar         1    LIG   0.0000
  25 C25         -2.8141     1.3038     0.0060 C.ar         1    LIG   0.0000
  26 C26         -3.3188     2.3169    -0.8025 C.ar         1    LIG   0.0000
  27 C27         -2.5386     2.8437    -1.8273 C.ar         1    LIG   0.0000
  28 C28         -1.2526     2.3620    -2.0494 C.ar         1    LIG   0.0000
  29 C29         -0.7404     1.3484    -1.2458 C.ar         1    LIG   0.0000
  30 H            0.7698    -1.0213     1.3289 H            1    LIG   0.0000
  31 H           -0.6500     2.1257     0.9818 H            1    LIG   0.0000
  32 H            0.2728     4.0378    -0.8446 H            1    LIG   0.0000
  33 H            1.4775     6.1119    -0.8679 H            1    LIG   0.0000
  34 H            2.9673     6.6303     0.9359 H            1    LIG   0.0000
  35 H            2.0921     3.1103     2.7501 H            1    LIG   0.0000
  36 H            4.7173    -1.8111    -0.5654 H            1    LIG   0.0000
  37 H            6.7115    -2.9611    -1.2104 H            1    LIG   0.0000
  38 H            8.8511    -2.0278    -0.6922 H            1    LIG   0.0000
  39 H            8.9955     0.0560     0.4710 H            1    LIG   0.0000
  40 H           -3.3703     0.9217     0.7440 H            1    LIG   0.0000
  41 H           -4.2426     2.6668    -0.6472 H            1    LIG   0.0000
  42 H           -2.9042     3.5720    -2.4069 H            1    LIG   0.0000
  43 H           -0.6961     2.7445    -2.7870 H            1    LIG   0.0000
  44 H            0.1831     0.9978    -1.4013 H            1    LIG   0.0000
@<TRIPOS>BOND
   1        1        2 2
   2        2        3 am
   3        3        4 1
   4        4        5 2
   5        5        6 1
   6        6        7 ar
   7        7        8 ar
   8        8        9 ar
   9        9       10 ar
  10       10       11 ar
  11       11        6 ar
  12        4       12 1
  13       12       13 2
  14       13       14 1
  15       14       15 1
  16       15       16 ar
  17       16       17 ar
  18       17       18 ar
  19       18       19 ar
  20       19       20 ar
  21       20       15 ar
  22       20       21 1
  23       14       22 2
  24       22       23 1
  25       23       12 1
  26        2       24 1
  27       24       25 ar
  28       25       26 ar
  29       26       27 ar
  30       27       28 ar
  31       28       29 ar
  32       29       24 ar
  33        3       30 1
  34        5       31 1
  35        7       32 1
  36        8       33 1
  37        9       34 1
  38       11       35 1
  39       16       36 1
  40       17       37 1
  41       18       38 1
  42       19       39 1
  43       25       40 1
  44       26       41 1
  45       27       42 1
  46       28       43 1
  47       29       44 1

@<TRIPOS>MOLECULE

  44   47
SMALL
USER_CHARGES
@<TRIPOS>ATOM
   1 O1           0.7561    -0.6440     3.1538 O.2          1    LIG   0.0000
   2 C2           0.4862    -1.0594     2.0609 C.2          1    LIG   0.0000
   3 N3           0.3150    -0.1863     1.0191 N.am         1    LIG   0.0000
   4 C4           1.0000     1.0000     1.0000 C.2          1    LIG   0.0000
   5 C5           0.3500     2.1257     0.9818 C.2          1    LIG   0.0000
   6 C6           1.0752     3.3816     0.9616 C.ar         1    LIG   0.0000
   7 C7           1.9442     3.6954     2.0019 C.ar         1    LIG   0.0000
   8 C8           2.6368     4.9010     1.9767 C.ar         1    LIG   0.0000
   9 C9           2.4491     5.7744     0.9095 C.ar         1    LIG   0.0000
  10 N10          1.6066     5.4501    -0.0824 N.ar         1    LIG   0.0000
  11 C11          0.9277     4.2932    -0.0785 C.ar         1    LIG   0.0000
  12 C12          2.4500     1.0000     1.0000 C.2          1    LIG   0.0000
  13 N13          3.2134     0.0700     0.4831 N.2          1    LIG   0.0000
  14 C14          4.4867     0.4912     0.7161 C.2          1    LIG   0.0000
  15 C15          5.6963    -0.2071     0.3261 C.ar         1    LIG   0.0000
  16 C16          6.6077     0.4045    -0.5283 C.ar         1    LIG   0.0000
  17 C17          7.7682    -0.2650    -0.9015 C.ar         1    LIG   0.0000
  18 C18          8.0171    -1.5467    -0.4217 C.ar         1    LIG   0.0000
  19 C19          7.1049    -2.1585     0.4316 C.ar         1    LIG   0.0000
  20 C20          5.9450    -1.4895     0.8054 C.ar         1    LIG   0.0000
  21 Br21         4.6600    -2.3526     2.0083 Br           1    LIG   0.0000
  22 N22          4.4315     1.6320     1.3513 N.2          1    LIG   0.0000
  23 O23          3.2153     1.9304     1.5173 O.2          1    LIG   0.0000
  24 C24          0.3414    -2.4859     1.8427 C.ar         1    LIG   0.0000
  25 C25          0.5168    -3.3660     2.9055 C.ar         1    LIG   0.0000
  26 C26          0.3767    -4.7325     2.6871 C.ar         1    LIG   0.0000
  27 C27          0.0641    -5.2061     1.4165 C.ar         1    LIG   0.0000
  28 C28         -0.1099    -4.3187     0.3595 C.ar         1    LIG   0.0000
  29 C29          0.0291    -2.9503     0.5692 C.ar         1    LIG   0.0000
  30 H           -0.3100    -0.4149     0.2727 H            1    LIG   0.0000
  31 H           -0.6500     2.1257     0.9818 H            1    LIG   0.0000
  32 H            2.0699     3.0583     2.7624 H            1    LIG   0.0000
  33 H            3.2639     5.1383     2.7187 H            1    LIG   0.0000
  34 H            2.9426     6.6437     0.8821 H            1    LIG   0.0000
  35 H            0.3069     4.0833    -0.8339 H            1    LIG   0.0000
  36 H            6.4286     1.3255    -0.8741 H            1    LIG   0.0000
  37 H            8.4239     0.1751    -1.5151 H            1    LIG   0.0000
  38 H            8.8516    -2.0280    -0.6900 H            1    LIG   0.0000
  39 H            7.2834    -3.0801     0.7763 H            1    LIG   0.0000
  40 H            0.7412    -3.0200     3.8166 H            1    LIG   0.0000
  41 H            0.5008    -5.3748     3.4434 H            1    LIG   0.0000
  42 H           -0.0360    -6.1891     1.2626 H            1    LIG   0.0000
  43 H           -0.3349    -4.6644    -0.5514 H            1    LIG   0.0000
  44 H           -0.0941    -2.3079    -0.1871 H            1    LIG   0.0000
@<TRIPOS>BOND
   1        1        2 2
   2        2        3 am
   3        3        4 1
   4        4        5 2
   5        5        6 1
   6        6        7 ar
   7        7        8 ar
   8        8        9 ar
   9        9       10 ar
  10       10       11 ar
  11       11        6 ar
  12        4       12 1
  13       12       13 2
  14       13       14 1
  15       14       15 1
  16       15       16 ar
  17       16       17 ar
  18       17       18 ar
  19       18       19 ar
  20       19       20 ar
  21       20       15 ar
  22       20       21 1
  23       14       22 2
  24       22       23 1
  25       23       12 1
  26        2       24 1
  27       24       25 ar
  28       25       26 ar
  29       26       27 ar
  30       27       28 ar
  31       28       29 ar
  32       29       24 ar
  33        3       30 1
  34        5       31 1
  35        7       32 1
  36        8       33 1
  37        9       34 1
  38       11       35 1
  39       16       36 1
  40       17       37 1
  41       18       38 1
  42       19       39 1
  43       25       40 1
  44       26       41 1
  45       27       42 1
  46       28       43 1
  47       29       44 1

