@<TRIPOS>MOLECULE
*****
 44 47 0 0 0
SMALL
USER_CHARGES

@<TRIPOS>ATOM
      1 O1         -1.6967   -1.1400    0.9520 O.2     1  LIG1        0.0000
      2 C2         -0.9930   -0.2286    0.6140 C.2     1  LIG1        0.0000
      3 N3          0.3150   -0.1863    1.0191 N.am    1  LIG1        0.0000
      4 C4          1.0000    1.0000    1.0000 C.2     1  LIG1        0.0000
      5 C5          0.3500    2.1257    0.9818 C.2     1  LIG1        0.0000
      6 C6          1.0752    3.3816    0.9616 C.3     1  LIG1        0.0000
      7 C7          0.8979    4.2657   -0.0981 C.3     1  LIG1        0.0000
      8 C8          1.5959    5.4683   -0.1118 C.3     1  LIG1        0.0000
      9 C9          2.4609    5.7680    0.9366 C.3     1  LIG1        0.0000
     10 N10         2.6153    4.9005    1.9477 N.pl3   1  LIG1        0.0000
     11 C11         1.9529    3.7345    1.9813 C.3     1  LIG1        0.0000
     12 C12         2.4500    1.0000    1.0000 C.2     1  LIG1        0.0000
     13 N13         3.2134    0.0700    0.4831 N.2     1  LIG1        0.0000
     14 C14         4.4867    0.4912    0.7161 C.2     1  LIG1        0.0000
     15 C15         5.6963   -0.2071    0.3261 C.3     1  LIG1        0.0000
     16 C16         5.6120   -1.4202   -0.3493 C.3     1  LIG1        0.0000
     17 C17         6.7721   -2.0895   -0.7241 C.3     1  LIG1        0.0000
     18 C18         8.0169   -1.5466   -0.4226 C.3     1  LIG1        0.0000
     19 C19         8.1008   -0.3342    0.2538 C.3     1  LIG1        0.0000
     20 C20         6.9414    0.3354    0.6282 C.3     1  LIG1        0.0000
     21 Br21        7.0607    2.0443    1.5813 Br      1  LIG1        0.0000
     22 N22         4.4315    1.6320    1.3513 N.2     1  LIG1        0.0000
     23 O23         3.2153    1.9304    1.5173 O.2     1  LIG1        0.0000
     24 C24        -1.5273    0.8280   -0.2234 C.3     1  LIG1        0.0000
     25 C25        -2.8141    1.3038    0.0060 C.3     1  LIG1        0.0000
     26 C26        -3.3188    2.3169   -0.8025 C.3     1  LIG1        0.0000
     27 C27        -2.5386    2.8437   -1.8273 C.3     1  LIG1        0.0000
     28 C28        -1.2526    2.3620   -2.0494 C.3     1  LIG1        0.0000
     29 C29        -0.7404    1.3484   -1.2458 C.3     1  LIG1        0.0000
     30 H           0.7698   -1.0213    1.3289 H       1  LIG1        0.0000
     31 H          -0.6500    2.1257    0.9818 H       1  LIG1        0.0000
     32 H           0.2728    4.0378   -0.8446 H       1  LIG1        0.0000
     33 H           1.4775    6.1119   -0.8679 H       1  LIG1        0.0000
     34 H           2.9673    6.6303    0.9359 H       1  LIG1        0.0000
     35 H           2.0921    3.1103    2.7501 H       1  LIG1        0.0000
     36 H           4.7173   -1.8111   -0.5654 H       1  LIG1        0.0000
     37 H           6.7115   -2.9611   -1.2104 H       1  LIG1        0.0000
     38 H           8.8511   -2.0278   -0.6922 H       1  LIG1        0.0000
     39 H           8.9955    0.0560    0.4710 H       1  LIG1        0.0000
     40 H          -3.3703    0.9217    0.7440 H       1  LIG1        0.0000
     41 H          -4.2426    2.6668   -0.6472 H       1  LIG1        0.0000
     42 H          -2.9042    3.5720   -2.4069 H       1  LIG1        0.0000
     43 H          -0.6961    2.7445   -2.7870 H       1  LIG1        0.0000
     44 H           0.1831    0.9978   -1.4013 H       1  LIG1        0.0000
@<TRIPOS>BOND
     1     1     2    2
     2     2     3   am
     3     3     4    1
     4     4     5    2
     5     5     6    1
     6     6     7   ar
     7     7     8   ar
     8     8     9   ar
     9     9    10   ar
    10    10    11   ar
    11    11     6   ar
    12     4    12    1
    13    12    13    2
    14    13    14    1
    15    14    15    1
    16    15    16   ar
    17    16    17   ar
    18    17    18   ar
    19    18    19   ar
    20    19    20   ar
    21    20    15   ar
    22    20    21    1
    23    14    22    2
    24    22    23    1
    25    23    12    1
    26     2    24    1
    27    24    25   ar
    28    25    26   ar
    29    26    27   ar
    30    27    28   ar
    31    28    29   ar
    32    29    24   ar
    33     3    30    1
    34     5    31    1
    35     7    32    1
    36     8    33    1
    37     9    34    1
    38    11    35    1
    39    16    36    1
    40    17    37    1
    41    18    38    1
    42    19    39    1
    43    25    40    1
    44    26    41    1
    45    27    42    1
    46    28    43    1
    47    29    44    1
