@<TRIPOS>MOLECULE
*****
 44 47 0 0 0
SMALL
USER_CHARGES

@<TRIPOS>ATOM
      1 O1          0.4669   -2.3828    1.3557 O.2     1  LIG1        0.0000
      2 C2          0.8623   -1.2836    1.6302 C.2     1  LIG1        0.0000
      3 N3          0.3150   -0.1863    1.0191 N.am    1  LIG1        0.0000
      4 C4          1.0000    1.0000    1.0000 C.2     1  LIG1        0.0000
      5 C5          0.3500    2.1257    0.9818 C.2     1  LIG1        0.0000
      6 C6          1.0752    3.3816    0.9616 C.3     1  LIG1        0.0000
      7 C7          0.3755    4.5841    0.9427 C.3     1  LIG1        0.0000
      8 C8          1.0765    5.7850    0.9234 C.3     1  LIG1        0.0000
      9 C9          2.4681    5.7637    0.9240 C.3     1  LIG1        0.0000
     10 N10         3.1209    4.5922    0.9429 N.pl3   1  LIG1        0.0000
     11 C11         2.4655    3.4220    0.9609 C.3     1  LIG1        0.0000
     12 C12         2.4500    1.0000    1.0000 C.2     1  LIG1        0.0000
     13 N13         3.2134    1.0173    2.0639 N.2     1  LIG1        0.0000
     14 C14         4.4867    1.0085    1.5826 C.2     1  LIG1        0.0000
     15 C15         5.6963    1.0199    2.3824 C.3     1  LIG1        0.0000
     16 C16         6.2754   -0.1790    2.7847 C.3     1  LIG1        0.0000
     17 C17         7.4360   -0.1680    3.5510 C.3     1  LIG1        0.0000
     18 C18         8.0172    1.0419    3.9163 C.3     1  LIG1        0.0000
     19 C19         7.4371    2.2406    3.5149 C.3     1  LIG1        0.0000
     20 C20         6.2773    2.2301    2.7485 C.3     1  LIG1        0.0000
     21 Br21        5.4607    3.9202    2.1830 Br      1  LIG1        0.0000
     22 N22         4.4315    0.9883    0.2770 N.2     1  LIG1        0.0000
     23 O23         3.2153    0.9828   -0.0644 O.2     1  LIG1        0.0000
     24 C24         1.9197   -1.1166    2.6086 C.3     1  LIG1        0.0000
     25 C25         2.9897   -2.0052    2.6240 C.3     1  LIG1        0.0000
     26 C26         3.9990   -1.8381    3.5664 C.3     1  LIG1        0.0000
     27 C27         3.9319   -0.7907    4.4802 C.3     1  LIG1        0.0000
     28 C28         2.8582    0.0934    4.4574 C.3     1  LIG1        0.0000
     29 C29         1.8441   -0.0671    3.5185 C.3     1  LIG1        0.0000
     30 H          -0.5845   -0.2513    0.5871 H       1  LIG1        0.0000
     31 H          -0.6500    2.1257    0.9818 H       1  LIG1        0.0000
     32 H          -0.6245    4.5847    0.9430 H       1  LIG1        0.0000
     33 H           0.5852    6.6559    0.9093 H       1  LIG1        0.0000
     34 H           2.9812    6.6219    0.9103 H       1  LIG1        0.0000
     35 H           2.9837    2.5668    0.9740 H       1  LIG1        0.0000
     36 H           5.8573   -1.0489    2.5230 H       1  LIG1        0.0000
     37 H           7.8528   -1.0300    3.8394 H       1  LIG1        0.0000
     38 H           8.8517    1.0498    4.4672 H       1  LIG1        0.0000
     39 H           7.8546    3.1104    3.7777 H       1  LIG1        0.0000
     40 H           3.0329   -2.7559    1.9648 H       1  LIG1        0.0000
     41 H           4.7731   -2.4708    3.5872 H       1  LIG1        0.0000
     42 H           4.6590   -0.6731    5.1565 H       1  LIG1        0.0000
     43 H           2.8152    0.8445    5.1161 H       1  LIG1        0.0000
     44 H           1.0695    0.5650    3.4979 H       1  LIG1        0.0000
@<TRIPOS>BOND
     1     1     2    2
     2     2     3   am
     3     3     4    1
     4     4     5    2
     5     5     6    1
     6     6     7   ar
     7     7     8   ar
     8     8     9   ar
     9     9    10   ar
    10    10    11   ar
    11    11     6   ar
    12     4    12    1
    13    12    13    2
    14    13    14    1
    15    14    15    1
    16    15    16   ar
    17    16    17   ar
    18    17    18   ar
    19    18    19   ar
    20    19    20   ar
    21    20    15   ar
    22    20    21    1
    23    14    22    2
    24    22    23    1
    25    23    12    1
    26     2    24    1
    27    24    25   ar
    28    25    26   ar
    29    26    27   ar
    30    27    28   ar
    31    28    29   ar
    32    29    24   ar
    33     3    30    1
    34     5    31    1
    35     7    32    1
    36     8    33    1
    37     9    34    1
    38    11    35    1
    39    16    36    1
    40    17    37    1
    41    18    38    1
    42    19    39    1
    43    25    40    1
    44    26    41    1
    45    27    42    1
    46    28    43    1
    47    29    44    1
