@<TRIPOS>MOLECULE
*****
 44 47 0 0 0
SMALL
USER_CHARGES

@<TRIPOS>ATOM
      1 O1          0.3664   -2.2397    1.8804 O.2     1  LIG1        0.0000
      2 C2          0.4862   -1.0594    2.0609 C.2     1  LIG1        0.0000
      3 N3          0.3150   -0.1863    1.0191 N.am    1  LIG1        0.0000
      4 C4          1.0000    1.0000    1.0000 C.2     1  LIG1        0.0000
      5 C5          0.3500    2.1257    0.9818 C.2     1  LIG1        0.0000
      6 C6          1.0752    3.3816    0.9616 C.3     1  LIG1        0.0000
      7 C7          1.9442    3.6954    2.0019 C.3     1  LIG1        0.0000
      8 C8          2.6368    4.9010    1.9767 C.3     1  LIG1        0.0000
      9 C9          2.4491    5.7744    0.9095 C.3     1  LIG1        0.0000
     10 N10         1.6066    5.4501   -0.0824 N.pl3   1  LIG1        0.0000
     11 C11         0.9277    4.2932   -0.0785 C.3     1  LIG1        0.0000
     12 C12         2.4500    1.0000    1.0000 C.2     1  LIG1        0.0000
     13 N13         3.2134   -0.0639    1.0173 N.2     1  LIG1        0.0000
     14 C14         4.4867    0.4174    1.0085 C.2     1  LIG1        0.0000
     15 C15         5.6963   -0.3824    1.0199 C.3     1  LIG1        0.0000
     16 C16         6.9408    0.2387    1.0092 C.3     1  LIG1        0.0000
     17 C17         8.1009   -0.5284    1.0211 C.3     1  LIG1        0.0000
     18 C18         8.0168   -1.9168    1.0424 C.3     1  LIG1        0.0000
     19 C19         6.7722   -2.5375    1.0518 C.3     1  LIG1        0.0000
     20 C20         5.6124   -1.7711    1.0405 C.3     1  LIG1        0.0000
     21 Br21        3.8586   -2.6469    1.0541 Br      1  LIG1        0.0000
     22 N22         4.4315    1.7230    0.9883 N.2     1  LIG1        0.0000
     23 O23         3.2153    2.0644    0.9828 O.2     1  LIG1        0.0000
     24 C24         0.8124   -0.5573    3.3818 C.3     1  LIG1        0.0000
     25 C25         1.7376   -1.2369    4.1673 C.3     1  LIG1        0.0000
     26 C26         2.0439   -0.7486    5.4332 C.3     1  LIG1        0.0000
     27 C27         1.4274    0.4078    5.9013 C.3     1  LIG1        0.0000
     28 C28         0.5035    1.0812    5.1088 C.3     1  LIG1        0.0000
     29 C29         0.1910    0.5991    3.8417 C.3     1  LIG1        0.0000
     30 H          -0.3100   -0.4149    0.2727 H       1  LIG1        0.0000
     31 H          -0.6500    2.1257    0.9818 H       1  LIG1        0.0000
     32 H           2.0699    3.0583    2.7624 H       1  LIG1        0.0000
     33 H           3.2639    5.1383    2.7187 H       1  LIG1        0.0000
     34 H           2.9426    6.6437    0.8821 H       1  LIG1        0.0000
     35 H           0.3069    4.0833   -0.8339 H       1  LIG1        0.0000
     36 H           7.0015    1.2367    0.9930 H       1  LIG1        0.0000
     37 H           8.9956   -0.0818    1.0143 H       1  LIG1        0.0000
     38 H           8.8510   -2.4683    1.0510 H       1  LIG1        0.0000
     39 H           6.7116   -3.5355    1.0667 H       1  LIG1        0.0000
     40 H           2.1777   -2.0673    3.8257 H       1  LIG1        0.0000
     41 H           2.7073   -1.2288    6.0070 H       1  LIG1        0.0000
     42 H           1.6497    0.7565    6.8119 H       1  LIG1        0.0000
     43 H           0.0639    1.9120    5.4500 H       1  LIG1        0.0000
     44 H          -0.4729    1.0787    3.2679 H       1  LIG1        0.0000
@<TRIPOS>BOND
     1     1     2    2
     2     2     3   am
     3     3     4    1
     4     4     5    2
     5     5     6    1
     6     6     7   ar
     7     7     8   ar
     8     8     9   ar
     9     9    10   ar
    10    10    11   ar
    11    11     6   ar
    12     4    12    1
    13    12    13    2
    14    13    14    1
    15    14    15    1
    16    15    16   ar
    17    16    17   ar
    18    17    18   ar
    19    18    19   ar
    20    19    20   ar
    21    20    15   ar
    22    20    21    1
    23    14    22    2
    24    22    23    1
    25    23    12    1
    26     2    24    1
    27    24    25   ar
    28    25    26   ar
    29    26    27   ar
    30    27    28   ar
    31    28    29   ar
    32    29    24   ar
    33     3    30    1
    34     5    31    1
    35     7    32    1
    36     8    33    1
    37     9    34    1
    38    11    35    1
    39    16    36    1
    40    17    37    1
    41    18    38    1
    42    19    39    1
    43    25    40    1
    44    26    41    1
    45    27    42    1
    46    28    43    1
    47    29    44    1
