@<TRIPOS>MOLECULE
*****
 44 47 0 0 0
SMALL
USER_CHARGES

@<TRIPOS>ATOM
      1 O1         -1.6550    0.7052    0.4851 O.2     1  LIG1        0.0000
      2 C2         -1.0550   -0.1863    1.0191 C.2     1  LIG1        0.0000
      3 N3          0.3150   -0.1863    1.0191 N.am    1  LIG1        0.0000
      4 C4          1.0000    1.0000    1.0000 C.2     1  LIG1        0.0000
      5 C5          0.3500    2.1257    0.9818 C.2     1  LIG1        0.0000
      6 C6          1.0752    3.3816    0.9616 C.3     1  LIG1        0.0000
      7 C7          2.3267    3.4674    1.5634 C.3     1  LIG1        0.0000
      8 C8          3.0172    4.6743    1.5406 C.3     1  LIG1        0.0000
      9 C9          2.4441    5.7774    0.9146 C.3     1  LIG1        0.0000
     10 N10         1.2366    5.6706    0.3406 N.pl3   1  LIG1        0.0000
     11 C11         0.5524    4.5169    0.3512 C.3     1  LIG1        0.0000
     12 C12         2.4500    1.0000    1.0000 C.2     1  LIG1        0.0000
     13 N13         3.2134    0.9827   -0.0639 N.2     1  LIG1        0.0000
     14 C14         4.4867    0.9915    0.4174 C.2     1  LIG1        0.0000
     15 C15         5.6963    0.9801   -0.3824 C.3     1  LIG1        0.0000
     16 C16         6.2774   -0.2299   -0.7473 C.3     1  LIG1        0.0000
     17 C17         7.4370   -0.2407   -1.5151 C.3     1  LIG1        0.0000
     18 C18         8.0166    0.9582   -1.9172 C.3     1  LIG1        0.0000
     19 C19         7.4359    2.1679   -1.5511 C.3     1  LIG1        0.0000
     20 C20         6.2765    2.1793   -0.7841 C.3     1  LIG1        0.0000
     21 Br21        5.4586    3.8847   -0.2689 Br      1  LIG1        0.0000
     22 N22         4.4315    1.0117    1.7230 N.2     1  LIG1        0.0000
     23 O23         3.2153    1.0172    2.0644 O.2     1  LIG1        0.0000
     24 C24        -1.7801   -1.2637    1.6646 C.3     1  LIG1        0.0000
     25 C25        -3.1080   -1.0753    2.0337 C.3     1  LIG1        0.0000
     26 C26        -3.7956   -2.1138    2.6529 C.3     1  LIG1        0.0000
     27 C27        -3.1553   -3.3250    2.8967 C.3     1  LIG1        0.0000
     28 C28        -1.8272   -3.5047    2.5239 C.3     1  LIG1        0.0000
     29 C29        -1.1319   -2.4709    1.9047 C.3     1  LIG1        0.0000
     30 H           0.8150   -1.0522    1.0331 H       1  LIG1        0.0000
     31 H          -0.6500    2.1257    0.9818 H       1  LIG1        0.0000
     32 H           2.7269    2.6668    2.0093 H       1  LIG1        0.0000
     33 H           3.9172    4.7490    1.9700 H       1  LIG1        0.0000
     34 H           2.9326    6.6496    0.8928 H       1  LIG1        0.0000
     35 H          -0.3460    4.4724   -0.0857 H       1  LIG1        0.0000
     36 H           5.8615   -1.0919   -0.4575 H       1  LIG1        0.0000
     37 H           7.8543   -1.1106   -1.7781 H       1  LIG1        0.0000
     38 H           8.8503    0.9504   -2.4694 H       1  LIG1        0.0000
     39 H           7.8526    3.0299   -1.8398 H       1  LIG1        0.0000
     40 H          -3.5632   -0.2029    1.8558 H       1  LIG1        0.0000
     41 H          -4.7504   -1.9900    2.9229 H       1  LIG1        0.0000
     42 H          -3.6522   -4.0698    3.3420 H       1  LIG1        0.0000
     43 H          -1.3720   -4.3773    2.7011 H       1  LIG1        0.0000
     44 H          -0.1768   -2.5942    1.6352 H       1  LIG1        0.0000
@<TRIPOS>BOND
     1     1     2    2
     2     2     3   am
     3     3     4    1
     4     4     5    2
     5     5     6    1
     6     6     7   ar
     7     7     8   ar
     8     8     9   ar
     9     9    10   ar
    10    10    11   ar
    11    11     6   ar
    12     4    12    1
    13    12    13    2
    14    13    14    1
    15    14    15    1
    16    15    16   ar
    17    16    17   ar
    18    17    18   ar
    19    18    19   ar
    20    19    20   ar
    21    20    15   ar
    22    20    21    1
    23    14    22    2
    24    22    23    1
    25    23    12    1
    26     2    24    1
    27    24    25   ar
    28    25    26   ar
    29    26    27   ar
    30    27    28   ar
    31    28    29   ar
    32    29    24   ar
    33     3    30    1
    34     5    31    1
    35     7    32    1
    36     8    33    1
    37     9    34    1
    38    11    35    1
    39    16    36    1
    40    17    37    1
    41    18    38    1
    42    19    39    1
    43    25    40    1
    44    26    41    1
    45    27    42    1
    46    28    43    1
    47    29    44    1
