@<TRIPOS>MOLECULE
*****
 44 47 0 0 0
SMALL
USER_CHARGES

@<TRIPOS>ATOM
      1 O1         -1.7433   -1.0362    0.9742 O.2     1  LIG1        0.0000
      2 C2         -0.9930   -0.2155    1.4255 C.2     1  LIG1        0.0000
      3 N3          0.3150   -0.1863    1.0191 N.am    1  LIG1        0.0000
      4 C4          1.0000    1.0000    1.0000 C.2     1  LIG1        0.0000
      5 C5          0.3500    2.1257    0.9818 C.2     1  LIG1        0.0000
      6 C6          1.0752    3.3816    0.9616 C.3     1  LIG1        0.0000
      7 C7          2.3262    3.4482    0.3563 C.3     1  LIG1        0.0000
      8 C8          3.0166    4.6553    0.3400 C.3     1  LIG1        0.0000
      9 C9          2.4433    5.7781    0.9297 C.3     1  LIG1        0.0000
     10 N10         1.2358    5.6899    1.5068 N.pl3   1  LIG1        0.0000
     11 C11         0.5524    4.5360    1.5349 C.3     1  LIG1        0.0000
     12 C12         2.4500    1.0000    1.0000 C.2     1  LIG1        0.0000
     13 N13         3.2134    0.9827   -0.0639 N.2     1  LIG1        0.0000
     14 C14         4.4867    0.9915    0.4174 C.2     1  LIG1        0.0000
     15 C15         5.6963    0.9801   -0.3824 C.3     1  LIG1        0.0000
     16 C16         5.6120    0.9584   -1.7706 C.3     1  LIG1        0.0000
     17 C17         6.7721    0.9484   -2.5376 C.3     1  LIG1        0.0000
     18 C18         8.0169    0.9588   -1.9167 C.3     1  LIG1        0.0000
     19 C19         8.1008    0.9791   -0.5285 C.3     1  LIG1        0.0000
     20 C20         6.9414    0.9897    0.2385 C.3     1  LIG1        0.0000
     21 Br21        7.0607    1.0187    2.1951 Br      1  LIG1        0.0000
     22 N22         4.4315    1.0117    1.7230 N.2     1  LIG1        0.0000
     23 O23         3.2153    1.0172    2.0644 O.2     1  LIG1        0.0000
     24 C24        -1.4710    0.7453    2.4010 C.3     1  LIG1        0.0000
     25 C25        -2.7316    1.3128    2.2476 C.3     1  LIG1        0.0000
     26 C26        -3.1817    2.2340    3.1875 C.3     1  LIG1        0.0000
     27 C27        -2.3738    2.5786    4.2669 C.3     1  LIG1        0.0000
     28 C28        -1.1145    2.0059    4.4126 C.3     1  LIG1        0.0000
     29 C29        -0.6565    1.0842    3.4765 C.3     1  LIG1        0.0000
     30 H           0.7698   -1.0309    0.7365 H       1  LIG1        0.0000
     31 H          -0.6500    2.1257    0.9818 H       1  LIG1        0.0000
     32 H           2.7261    2.6338   -0.0640 H       1  LIG1        0.0000
     33 H           3.9167    4.7160   -0.0915 H       1  LIG1        0.0000
     34 H           2.9318    6.6506    0.9231 H       1  LIG1        0.0000
     35 H          -0.3454    4.5053    1.9743 H       1  LIG1        0.0000
     36 H           4.7173    0.9501   -2.2172 H       1  LIG1        0.0000
     37 H           6.7115    0.9337   -3.5357 H       1  LIG1        0.0000
     38 H           8.8511    0.9516   -2.4682 H       1  LIG1        0.0000
     39 H           8.9955    0.9861   -0.0820 H       1  LIG1        0.0000
     40 H          -3.3080    1.0613    1.4701 H       1  LIG1        0.0000
     41 H          -4.0861    2.6487    3.0876 H       1  LIG1        0.0000
     42 H          -2.7002    3.2412    4.9411 H       1  LIG1        0.0000
     43 H          -0.5383    2.2568    5.1904 H       1  LIG1        0.0000
     44 H           0.2482    0.6698    3.5758 H       1  LIG1        0.0000
@<TRIPOS>BOND
     1     1     2    2
     2     2     3   am
     3     3     4    1
     4     4     5    2
     5     5     6    1
     6     6     7   ar
     7     7     8   ar
     8     8     9   ar
     9     9    10   ar
    10    10    11   ar
    11    11     6   ar
    12     4    12    1
    13    12    13    2
    14    13    14    1
    15    14    15    1
    16    15    16   ar
    17    16    17   ar
    18    17    18   ar
    19    18    19   ar
    20    19    20   ar
    21    20    15   ar
    22    20    21    1
    23    14    22    2
    24    22    23    1
    25    23    12    1
    26     2    24    1
    27    24    25   ar
    28    25    26   ar
    29    26    27   ar
    30    27    28   ar
    31    28    29   ar
    32    29    24   ar
    33     3    30    1
    34     5    31    1
    35     7    32    1
    36     8    33    1
    37     9    34    1
    38    11    35    1
    39    16    36    1
    40    17    37    1
    41    18    38    1
    42    19    39    1
    43    25    40    1
    44    26    41    1
    45    27    42    1
    46    28    43    1
    47    29    44    1
