@<TRIPOS>MOLECULE
*****
 44 47 0 0 0
SMALL
USER_CHARGES

@<TRIPOS>ATOM
      1 O1         -0.2925   -1.9689   -0.1700 O.2     1  LIG1        0.0000
      2 C2         -0.0275   -0.7986   -0.1576 C.2     1  LIG1        0.0000
      3 N3          0.3150   -0.1863    1.0191 N.am    1  LIG1        0.0000
      4 C4          1.0000    1.0000    1.0000 C.2     1  LIG1        0.0000
      5 C5          0.3500    2.1257    0.9818 C.2     1  LIG1        0.0000
      6 C6          1.0752    3.3816    0.9616 C.3     1  LIG1        0.0000
      7 C7          1.4215    3.9997    2.1590 C.3     1  LIG1        0.0000
      8 C8          2.1169    5.2037    2.1331 C.3     1  LIG1        0.0000
      9 C9          2.4558    5.7705    0.9079 C.3     1  LIG1        0.0000
     10 N10         2.1117    5.1560   -0.2335 N.pl3   1  LIG1        0.0000
     11 C11         1.4403    3.9948   -0.2323 C.3     1  LIG1        0.0000
     12 C12         2.4500    1.0000    1.0000 C.2     1  LIG1        0.0000
     13 N13         3.2134   -0.0639    1.0173 N.2     1  LIG1        0.0000
     14 C14         4.4867    0.4174    1.0085 C.2     1  LIG1        0.0000
     15 C15         5.6963   -0.3824    1.0199 C.3     1  LIG1        0.0000
     16 C16         6.9011    0.1845    1.4222 C.3     1  LIG1        0.0000
     17 C17         8.0610   -0.5829    1.4339 C.3     1  LIG1        0.0000
     18 C18         8.0167   -1.9170    1.0424 C.3     1  LIG1        0.0000
     19 C19         6.8121   -2.4831    0.6390 C.3     1  LIG1        0.0000
     20 C20         5.6523   -1.7166    0.6276 C.3     1  LIG1        0.0000
     21 Br21        3.9548   -2.5156    0.0592 Br      1  LIG1        0.0000
     22 N22         4.4315    1.7230    0.9883 N.2     1  LIG1        0.0000
     23 O23         3.2153    2.0644    0.9828 O.2     1  LIG1        0.0000
     24 C24        -0.0697   -0.0324   -1.3882 C.3     1  LIG1        0.0000
     25 C25         0.4059   -0.5970   -2.5671 C.3     1  LIG1        0.0000
     26 C26         0.3622    0.1453   -3.7426 C.3     1  LIG1        0.0000
     27 C27        -0.1534    1.4378   -3.7312 C.3     1  LIG1        0.0000
     28 C28        -0.6272    1.9943   -2.5476 C.3     1  LIG1        0.0000
     29 C29        -0.5865    1.2589   -1.3673 C.3     1  LIG1        0.0000
     30 H           0.0650   -0.6053    1.8920 H       1  LIG1        0.0000
     31 H          -0.6500    2.1257    0.9818 H       1  LIG1        0.0000
     32 H           1.1721    3.5811    3.0322 H       1  LIG1        0.0000
     33 H           2.3712    5.6581    2.9868 H       1  LIG1        0.0000
     34 H           2.9558    6.6360    0.8787 H       1  LIG1        0.0000
     35 H           1.1989    3.5639   -1.1019 H       1  LIG1        0.0000
     36 H           6.9333    1.1437    1.7028 H       1  LIG1        0.0000
     37 H           8.9270   -0.1755    1.7239 H       1  LIG1        0.0000
     38 H           8.8507   -2.4687    1.0509 H       1  LIG1        0.0000
     39 H           6.7801   -3.4420    0.3571 H       1  LIG1        0.0000
     40 H           0.7751   -1.5263   -2.5696 H       1  LIG1        0.0000
     41 H           0.7014   -0.2500   -4.5962 H       1  LIG1        0.0000
     42 H          -0.1836    1.9690   -4.5779 H       1  LIG1        0.0000
     43 H          -0.9971    2.9234   -2.5452 H       1  LIG1        0.0000
     44 H          -0.9250    1.6543   -0.5134 H       1  LIG1        0.0000
@<TRIPOS>BOND
     1     1     2    2
     2     2     3   am
     3     3     4    1
     4     4     5    2
     5     5     6    1
     6     6     7   ar
     7     7     8   ar
     8     8     9   ar
     9     9    10   ar
    10    10    11   ar
    11    11     6   ar
    12     4    12    1
    13    12    13    2
    14    13    14    1
    15    14    15    1
    16    15    16   ar
    17    16    17   ar
    18    17    18   ar
    19    18    19   ar
    20    19    20   ar
    21    20    15   ar
    22    20    21    1
    23    14    22    2
    24    22    23    1
    25    23    12    1
    26     2    24    1
    27    24    25   ar
    28    25    26   ar
    29    26    27   ar
    30    27    28   ar
    31    28    29   ar
    32    29    24   ar
    33     3    30    1
    34     5    31    1
    35     7    32    1
    36     8    33    1
    37     9    34    1
    38    11    35    1
    39    16    36    1
    40    17    37    1
    41    18    38    1
    42    19    39    1
    43    25    40    1
    44    26    41    1
    45    27    42    1
    46    28    43    1
    47    29    44    1
