@<TRIPOS>MOLECULE
*****
 44 47 0 0 0
SMALL
USER_CHARGES

@<TRIPOS>ATOM
      1 O1          0.7561   -0.7126   -1.0997 O.2     1  LIG1        0.0000
      2 C2          0.4862   -1.0926    0.0061 C.2     1  LIG1        0.0000
      3 N3          0.3150   -0.1863    1.0191 N.am    1  LIG1        0.0000
      4 C4          1.0000    1.0000    1.0000 C.2     1  LIG1        0.0000
      5 C5          0.3500    2.1257    0.9818 C.2     1  LIG1        0.0000
      6 C6          1.0752    3.3816    0.9616 C.3     1  LIG1        0.0000
      7 C7          2.3262    3.4482    0.3563 C.3     1  LIG1        0.0000
      8 C8          3.0166    4.6553    0.3400 C.3     1  LIG1        0.0000
      9 C9          2.4433    5.7781    0.9297 C.3     1  LIG1        0.0000
     10 N10         1.2358    5.6899    1.5068 N.pl3   1  LIG1        0.0000
     11 C11         0.5524    4.5360    1.5349 C.3     1  LIG1        0.0000
     12 C12         2.4500    1.0000    1.0000 C.2     1  LIG1        0.0000
     13 N13         3.2134    1.0173    2.0639 N.2     1  LIG1        0.0000
     14 C14         4.4867    1.0085    1.5826 C.2     1  LIG1        0.0000
     15 C15         5.6963    1.0199    2.3824 C.3     1  LIG1        0.0000
     16 C16         6.9408    1.0092    1.7613 C.3     1  LIG1        0.0000
     17 C17         8.1009    1.0211    2.5284 C.3     1  LIG1        0.0000
     18 C18         8.0168    1.0424    3.9168 C.3     1  LIG1        0.0000
     19 C19         6.7722    1.0518    4.5375 C.3     1  LIG1        0.0000
     20 C20         5.6124    1.0405    3.7711 C.3     1  LIG1        0.0000
     21 Br21        3.8586    1.0541    4.6469 Br      1  LIG1        0.0000
     22 N22         4.4315    0.9883    0.2770 N.2     1  LIG1        0.0000
     23 O23         3.2153    0.9828   -0.0644 O.2     1  LIG1        0.0000
     24 C24         0.3414   -2.5112    0.2702 C.3     1  LIG1        0.0000
     25 C25         0.0993   -3.3863   -0.7837 C.3     1  LIG1        0.0000
     26 C26        -0.0390   -4.7452   -0.5212 C.3     1  LIG1        0.0000
     27 C27         0.0653   -5.2164    0.7840 C.3     1  LIG1        0.0000
     28 C28         0.3078   -4.3342    1.8318 C.3     1  LIG1        0.0000
     29 C29         0.4468   -2.9733    1.5780 C.3     1  LIG1        0.0000
     30 H          -0.3100   -0.3907    1.7725 H       1  LIG1        0.0000
     31 H          -0.6500    2.1257    0.9818 H       1  LIG1        0.0000
     32 H           2.7261    2.6338   -0.0640 H       1  LIG1        0.0000
     33 H           3.9167    4.7160   -0.0915 H       1  LIG1        0.0000
     34 H           2.9318    6.6506    0.9231 H       1  LIG1        0.0000
     35 H          -0.3454    4.5053    1.9743 H       1  LIG1        0.0000
     36 H           7.0015    0.9930    0.7633 H       1  LIG1        0.0000
     37 H           8.9956    1.0143    2.0818 H       1  LIG1        0.0000
     38 H           8.8510    1.0510    4.4683 H       1  LIG1        0.0000
     39 H           6.7116    1.0667    5.5355 H       1  LIG1        0.0000
     40 H           0.0255   -3.0421   -1.7197 H       1  LIG1        0.0000
     41 H          -0.2135   -5.3838   -1.2707 H       1  LIG1        0.0000
     42 H          -0.0345   -6.1939    0.9696 H       1  LIG1        0.0000
     43 H           0.3823   -4.6782    2.7678 H       1  LIG1        0.0000
     44 H           0.6205   -2.3344    2.3275 H       1  LIG1        0.0000
@<TRIPOS>BOND
     1     1     2    2
     2     2     3   am
     3     3     4    1
     4     4     5    2
     5     5     6    1
     6     6     7   ar
     7     7     8   ar
     8     8     9   ar
     9     9    10   ar
    10    10    11   ar
    11    11     6   ar
    12     4    12    1
    13    12    13    2
    14    13    14    1
    15    14    15    1
    16    15    16   ar
    17    16    17   ar
    18    17    18   ar
    19    18    19   ar
    20    19    20   ar
    21    20    15   ar
    22    20    21    1
    23    14    22    2
    24    22    23    1
    25    23    12    1
    26     2    24    1
    27    24    25   ar
    28    25    26   ar
    29    26    27   ar
    30    27    28   ar
    31    28    29   ar
    32    29    24   ar
    33     3    30    1
    34     5    31    1
    35     7    32    1
    36     8    33    1
    37     9    34    1
    38    11    35    1
    39    16    36    1
    40    17    37    1
    41    18    38    1
    42    19    39    1
    43    25    40    1
    44    26    41    1
    45    27    42    1
    46    28    43    1
    47    29    44    1
