@<TRIPOS>MOLECULE

  42   45
SMALL
USER_CHARGES
@<TRIPOS>ATOM
   1 C1          -1.2059    -4.6749     0.8723 C.3          1    LIG   0.0000
   2 O2          -0.0527    -3.8512     0.9626 O.3          1    LIG   0.0000
   3 C3           0.1087    -2.9974    -0.0178 C.2          1    LIG   0.0000
   4 O4          -0.6913    -2.9512    -0.9110 O.2          1    LIG   0.0000
   5 C5           1.2550    -2.1074    -0.0236 C.ar         1    LIG   0.0000
   6 C6           2.4705    -2.7789    -0.0378 C.ar         1    LIG   0.0000
   7 C7           3.6285    -2.0123    -0.0440 C.ar         1    LIG   0.0000
   8 C8           4.8884    -2.7281    -0.0556 C.2          1    LIG   0.0000
   9 C9           6.1326    -2.1832    -0.0661 C.2          1    LIG   0.0000
  10 C10          7.1696    -3.1534    -0.0747 C.2          1    LIG   0.0000
  11 C11          6.7978    -4.4642    -0.0704 C.2          1    LIG   0.0000
  12 S12          5.0910    -4.4203    -0.0623 S.3          1    LIG   0.0000
  13 N13          3.5550    -0.6713    -0.0380 N.ar         1    LIG   0.0000
  14 C14          2.3942     0.0110    -0.0232 C.ar         1    LIG   0.0000
  15 C15          1.1959    -0.7039    -0.0173 C.ar         1    LIG   0.0000
  16 C16         -0.0232     0.0463     0.0002 C.2          1    LIG   0.0000
  17 O17         -1.1437    -0.4456     0.0118 O.2          1    LIG   0.0000
  18 N18         -0.0134     1.4079     0.0114 N.pl3        1    LIG  -1.0000
  19 C19          1.1833     2.0763     0.0031 C.2          1    LIG   0.0000
  20 S20          1.1414     3.6857     0.0144 S.2          1    LIG   0.0000
  21 N21          2.3703     1.3867    -0.0142 N.pl3        1    LIG   0.0000
  22 C22          3.5542     2.1339    -0.0223 C.ar         1    LIG   0.0000
  23 C23          4.1207     2.5078    -1.2367 C.ar         1    LIG   0.0000
  24 C24          5.2971     3.2497    -1.2325 C.ar         1    LIG   0.0000
  25 C25          5.9036     3.6171    -0.0360 C.ar         1    LIG   0.0000
  26 C26          5.3198     3.2325     1.1665 C.ar         1    LIG   0.0000
  27 C27          5.9753     3.6286     2.4795 C.3          1    LIG   0.0000
  28 C28          4.1438     2.4901     1.1858 C.ar         1    LIG   0.0000
  29 H           -1.2401    -5.2882     1.6614 H            1    LIG   0.0000
  30 H           -2.0250    -4.1014     0.8600 H            1    LIG   0.0000
  31 H           -1.1646    -5.2151     0.0318 H            1    LIG   0.0000
  32 H            2.5104    -3.7781    -0.0434 H            1    LIG   0.0000
  33 H            6.3014    -1.1975    -0.0676 H            1    LIG   0.0000
  34 H            8.1330    -2.8855    -0.0835 H            1    LIG   0.0000
  35 H            7.3904    -5.2696    -0.0716 H            1    LIG   0.0000
  36 H            3.6884     2.2470    -2.0999 H            1    LIG   0.0000
  37 H            5.7120     3.5224    -2.1005 H            1    LIG   0.0000
  38 H            6.7490     4.1512    -0.0403 H            1    LIG   0.0000
  39 H            6.8049     4.1548     2.2924 H            1    LIG   0.0000
  40 H            5.3404     4.1863     3.0141 H            1    LIG   0.0000
  41 H            6.2119     2.8054     2.9956 H            1    LIG   0.0000
  42 H            3.7293     2.2169     2.0539 H            1    LIG   0.0000
@<TRIPOS>BOND
   1        1        2 1
   2        2        3 1
   3        3        4 2
   4        3        5 1
   5        5        6 ar
   6        6        7 ar
   7        7        8 1
   8        8        9 2
   9        9       10 1
  10       10       11 2
  11       11       12 1
  12       12        8 1
  13        7       13 ar
  14       13       14 ar
  15       14       15 ar
  16       15        5 ar
  17       15       16 1
  18       16       17 2
  19       16       18 1
  20       18       19 1
  21       19       20 2
  22       19       21 1
  23       21       14 1
  24       21       22 1
  25       22       23 ar
  26       23       24 ar
  27       24       25 ar
  28       25       26 ar
  29       26       27 1
  30       26       28 ar
  31       28       22 ar
  32        1       29 1
  33        1       30 1
  34        1       31 1
  35        6       32 1
  36        9       33 1
  37       10       34 1
  38       11       35 1
  39       23       36 1
  40       24       37 1
  41       25       38 1
  42       27       39 1
  43       27       40 1
  44       27       41 1
  45       28       42 1

@<TRIPOS>MOLECULE

  42   45
SMALL
USER_CHARGES
@<TRIPOS>ATOM
   1 C1          -1.2059    -4.6749     0.8723 C.3          1    LIG   0.0000
   2 O2          -0.0527    -3.8512     0.9626 O.3          1    LIG   0.0000
   3 C3           0.1087    -2.9974    -0.0178 C.2          1    LIG   0.0000
   4 O4          -0.6913    -2.9512    -0.9110 O.2          1    LIG   0.0000
   5 C5           1.2550    -2.1074    -0.0236 C.ar         1    LIG   0.0000
   6 C6           2.4705    -2.7789    -0.0378 C.ar         1    LIG   0.0000
   7 C7           3.6285    -2.0123    -0.0440 C.ar         1    LIG   0.0000
   8 C8           4.8884    -2.7281    -0.0556 C.2          1    LIG   0.0000
   9 C9           5.0572    -4.0760    -0.0580 C.2          1    LIG   0.0000
  10 C10          6.4214    -4.4702    -0.0715 C.2          1    LIG   0.0000
  11 C11          7.3570    -3.4797    -0.0810 C.2          1    LIG   0.0000
  12 S12          6.4457    -2.0360    -0.0650 S.3          1    LIG   0.0000
  13 N13          3.5550    -0.6713    -0.0380 N.ar         1    LIG   0.0000
  14 C14          2.3942     0.0110    -0.0232 C.ar         1    LIG   0.0000
  15 C15          1.1959    -0.7039    -0.0173 C.ar         1    LIG   0.0000
  16 C16         -0.0232     0.0463     0.0002 C.2          1    LIG   0.0000
  17 O17         -1.1437    -0.4456     0.0118 O.2          1    LIG   0.0000
  18 N18         -0.0134     1.4079     0.0114 N.pl3        1    LIG  -1.0000
  19 C19          1.1833     2.0763     0.0031 C.2          1    LIG   0.0000
  20 S20          1.1414     3.6857     0.0144 S.2          1    LIG   0.0000
  21 N21          2.3703     1.3867    -0.0142 N.pl3        1    LIG   0.0000
  22 C22          3.5542     2.1339    -0.0223 C.ar         1    LIG   0.0000
  23 C23          4.1207     2.5078    -1.2367 C.ar         1    LIG   0.0000
  24 C24          5.2971     3.2497    -1.2325 C.ar         1    LIG   0.0000
  25 C25          5.9036     3.6171    -0.0360 C.ar         1    LIG   0.0000
  26 C26          5.3198     3.2325     1.1665 C.ar         1    LIG   0.0000
  27 C27          5.9753     3.6286     2.4795 C.3          1    LIG   0.0000
  28 C28          4.1438     2.4901     1.1858 C.ar         1    LIG   0.0000
  29 H           -1.2401    -5.2882     1.6614 H            1    LIG   0.0000
  30 H           -2.0250    -4.1014     0.8600 H            1    LIG   0.0000
  31 H           -1.1646    -5.2151     0.0318 H            1    LIG   0.0000
  32 H            2.5104    -3.7781    -0.0434 H            1    LIG   0.0000
  33 H            4.2969    -4.7256    -0.0511 H            1    LIG   0.0000
  34 H            6.6846    -5.4349    -0.0739 H            1    LIG   0.0000
  35 H            8.3523    -3.5765    -0.0943 H            1    LIG   0.0000
  36 H            3.6884     2.2470    -2.0999 H            1    LIG   0.0000
  37 H            5.7120     3.5224    -2.1005 H            1    LIG   0.0000
  38 H            6.7490     4.1512    -0.0403 H            1    LIG   0.0000
  39 H            6.8049     4.1548     2.2924 H            1    LIG   0.0000
  40 H            5.3404     4.1863     3.0141 H            1    LIG   0.0000
  41 H            6.2119     2.8054     2.9956 H            1    LIG   0.0000
  42 H            3.7293     2.2169     2.0539 H            1    LIG   0.0000
@<TRIPOS>BOND
   1        1        2 1
   2        2        3 1
   3        3        4 2
   4        3        5 1
   5        5        6 ar
   6        6        7 ar
   7        7        8 1
   8        8        9 2
   9        9       10 1
  10       10       11 2
  11       11       12 1
  12       12        8 1
  13        7       13 ar
  14       13       14 ar
  15       14       15 ar
  16       15        5 ar
  17       15       16 1
  18       16       17 2
  19       16       18 1
  20       18       19 1
  21       19       20 2
  22       19       21 1
  23       21       14 1
  24       21       22 1
  25       22       23 ar
  26       23       24 ar
  27       24       25 ar
  28       25       26 ar
  29       26       27 1
  30       26       28 ar
  31       28       22 ar
  32        1       29 1
  33        1       30 1
  34        1       31 1
  35        6       32 1
  36        9       33 1
  37       10       34 1
  38       11       35 1
  39       23       36 1
  40       24       37 1
  41       25       38 1
  42       27       39 1
  43       27       40 1
  44       27       41 1
  45       28       42 1

@<TRIPOS>MOLECULE

  42   45
SMALL
USER_CHARGES
@<TRIPOS>ATOM
   1 C1          -1.2059    -4.6749     0.8723 C.3          1    LIG   0.0000
   2 O2          -0.0527    -3.8512     0.9626 O.3          1    LIG   0.0000
   3 C3           0.1087    -2.9974    -0.0178 C.2          1    LIG   0.0000
   4 O4          -0.6913    -2.9512    -0.9110 O.2          1    LIG   0.0000
   5 C5           1.2550    -2.1074    -0.0236 C.ar         1    LIG   0.0000
   6 C6           2.4705    -2.7789    -0.0378 C.ar         1    LIG   0.0000
   7 C7           3.6285    -2.0123    -0.0440 C.ar         1    LIG   0.0000
   8 C8           4.8884    -2.7281    -0.0556 C.2          1    LIG   0.0000
   9 C9           6.1326    -2.1832    -0.0661 C.2          1    LIG   0.0000
  10 C10          7.1696    -3.1534    -0.0747 C.2          1    LIG   0.0000
  11 C11          6.7978    -4.4642    -0.0704 C.2          1    LIG   0.0000
  12 S12          5.0910    -4.4203    -0.0623 S.3          1    LIG   0.0000
  13 N13          3.5550    -0.6713    -0.0380 N.ar         1    LIG   0.0000
  14 C14          2.3942     0.0110    -0.0232 C.ar         1    LIG   0.0000
  15 C15          1.1959    -0.7039    -0.0173 C.ar         1    LIG   0.0000
  16 C16         -0.0232     0.0463     0.0002 C.2          1    LIG   0.0000
  17 O17         -1.1437    -0.4456     0.0118 O.2          1    LIG   0.0000
  18 N18         -0.0134     1.4079     0.0114 N.pl3        1    LIG  -1.0000
  19 C19          1.1833     2.0763     0.0031 C.2          1    LIG   0.0000
  20 S20          1.1414     3.6857     0.0144 S.2          1    LIG   0.0000
  21 N21          2.3703     1.3867    -0.0142 N.pl3        1    LIG   0.0000
  22 C22          3.5542     2.1339    -0.0223 C.ar         1    LIG   0.0000
  23 C23          4.1474     2.4918     1.1841 C.ar         1    LIG   0.0000
  24 C24          5.3232     3.2344     1.1637 C.ar         1    LIG   0.0000
  25 C25          5.9040     3.6164    -0.0409 C.ar         1    LIG   0.0000
  26 C26          5.2939     3.2474    -1.2352 C.ar         1    LIG   0.0000
  27 C27          5.9205     3.6606    -2.5570 C.3          1    LIG   0.0000
  28 C28          4.1175     2.5054    -1.2384 C.ar         1    LIG   0.0000
  29 H           -1.2401    -5.2882     1.6614 H            1    LIG   0.0000
  30 H           -2.0250    -4.1014     0.8600 H            1    LIG   0.0000
  31 H           -1.1646    -5.2151     0.0318 H            1    LIG   0.0000
  32 H            2.5104    -3.7781    -0.0434 H            1    LIG   0.0000
  33 H            6.3014    -1.1975    -0.0676 H            1    LIG   0.0000
  34 H            8.1330    -2.8855    -0.0835 H            1    LIG   0.0000
  35 H            7.3904    -5.2696    -0.0716 H            1    LIG   0.0000
  36 H            3.7345     2.2192     2.0531 H            1    LIG   0.0000
  37 H            5.7563     3.4970     2.0260 H            1    LIG   0.0000
  38 H            6.7499     4.1498    -0.0483 H            1    LIG   0.0000
  39 H            6.7542     4.1842    -2.3814 H            1    LIG   0.0000
  40 H            6.1455     2.8442    -3.0888 H            1    LIG   0.0000
  41 H            5.2742     4.2252    -3.0703 H            1    LIG   0.0000
  42 H            3.6841     2.2433    -2.1006 H            1    LIG   0.0000
@<TRIPOS>BOND
   1        1        2 1
   2        2        3 1
   3        3        4 2
   4        3        5 1
   5        5        6 ar
   6        6        7 ar
   7        7        8 1
   8        8        9 2
   9        9       10 1
  10       10       11 2
  11       11       12 1
  12       12        8 1
  13        7       13 ar
  14       13       14 ar
  15       14       15 ar
  16       15        5 ar
  17       15       16 1
  18       16       17 2
  19       16       18 1
  20       18       19 1
  21       19       20 2
  22       19       21 1
  23       21       14 1
  24       21       22 1
  25       22       23 ar
  26       23       24 ar
  27       24       25 ar
  28       25       26 ar
  29       26       27 1
  30       26       28 ar
  31       28       22 ar
  32        1       29 1
  33        1       30 1
  34        1       31 1
  35        6       32 1
  36        9       33 1
  37       10       34 1
  38       11       35 1
  39       23       36 1
  40       24       37 1
  41       25       38 1
  42       27       39 1
  43       27       40 1
  44       27       41 1
  45       28       42 1

@<TRIPOS>MOLECULE

  42   45
SMALL
USER_CHARGES
@<TRIPOS>ATOM
   1 C1          -1.2059    -4.6749     0.8723 C.3          1    LIG   0.0000
   2 O2          -0.0527    -3.8512     0.9626 O.3          1    LIG   0.0000
   3 C3           0.1087    -2.9974    -0.0178 C.2          1    LIG   0.0000
   4 O4          -0.6913    -2.9512    -0.9110 O.2          1    LIG   0.0000
   5 C5           1.2550    -2.1074    -0.0236 C.ar         1    LIG   0.0000
   6 C6           2.4705    -2.7789    -0.0378 C.ar         1    LIG   0.0000
   7 C7           3.6285    -2.0123    -0.0440 C.ar         1    LIG   0.0000
   8 C8           4.8884    -2.7281    -0.0556 C.2          1    LIG   0.0000
   9 C9           5.0572    -4.0760    -0.0580 C.2          1    LIG   0.0000
  10 C10          6.4214    -4.4702    -0.0715 C.2          1    LIG   0.0000
  11 C11          7.3570    -3.4797    -0.0810 C.2          1    LIG   0.0000
  12 S12          6.4457    -2.0360    -0.0650 S.3          1    LIG   0.0000
  13 N13          3.5550    -0.6713    -0.0380 N.ar         1    LIG   0.0000
  14 C14          2.3942     0.0110    -0.0232 C.ar         1    LIG   0.0000
  15 C15          1.1959    -0.7039    -0.0173 C.ar         1    LIG   0.0000
  16 C16         -0.0232     0.0463     0.0002 C.2          1    LIG   0.0000
  17 O17         -1.1437    -0.4456     0.0118 O.2          1    LIG   0.0000
  18 N18         -0.0134     1.4079     0.0114 N.pl3        1    LIG  -1.0000
  19 C19          1.1833     2.0763     0.0031 C.2          1    LIG   0.0000
  20 S20          1.1414     3.6857     0.0144 S.2          1    LIG   0.0000
  21 N21          2.3703     1.3867    -0.0142 N.pl3        1    LIG   0.0000
  22 C22          3.5542     2.1339    -0.0223 C.ar         1    LIG   0.0000
  23 C23          4.1474     2.4918     1.1841 C.ar         1    LIG   0.0000
  24 C24          5.3232     3.2344     1.1637 C.ar         1    LIG   0.0000
  25 C25          5.9040     3.6164    -0.0409 C.ar         1    LIG   0.0000
  26 C26          5.2939     3.2474    -1.2352 C.ar         1    LIG   0.0000
  27 C27          5.9205     3.6606    -2.5570 C.3          1    LIG   0.0000
  28 C28          4.1175     2.5054    -1.2384 C.ar         1    LIG   0.0000
  29 H           -1.2401    -5.2882     1.6614 H            1    LIG   0.0000
  30 H           -2.0250    -4.1014     0.8600 H            1    LIG   0.0000
  31 H           -1.1646    -5.2151     0.0318 H            1    LIG   0.0000
  32 H            2.5104    -3.7781    -0.0434 H            1    LIG   0.0000
  33 H            4.2969    -4.7256    -0.0511 H            1    LIG   0.0000
  34 H            6.6846    -5.4349    -0.0739 H            1    LIG   0.0000
  35 H            8.3523    -3.5765    -0.0943 H            1    LIG   0.0000
  36 H            3.7345     2.2192     2.0531 H            1    LIG   0.0000
  37 H            5.7563     3.4970     2.0260 H            1    LIG   0.0000
  38 H            6.7499     4.1498    -0.0483 H            1    LIG   0.0000
  39 H            6.7542     4.1842    -2.3814 H            1    LIG   0.0000
  40 H            6.1455     2.8442    -3.0888 H            1    LIG   0.0000
  41 H            5.2742     4.2252    -3.0703 H            1    LIG   0.0000
  42 H            3.6841     2.2433    -2.1006 H            1    LIG   0.0000
@<TRIPOS>BOND
   1        1        2 1
   2        2        3 1
   3        3        4 2
   4        3        5 1
   5        5        6 ar
   6        6        7 ar
   7        7        8 1
   8        8        9 2
   9        9       10 1
  10       10       11 2
  11       11       12 1
  12       12        8 1
  13        7       13 ar
  14       13       14 ar
  15       14       15 ar
  16       15        5 ar
  17       15       16 1
  18       16       17 2
  19       16       18 1
  20       18       19 1
  21       19       20 2
  22       19       21 1
  23       21       14 1
  24       21       22 1
  25       22       23 ar
  26       23       24 ar
  27       24       25 ar
  28       25       26 ar
  29       26       27 1
  30       26       28 ar
  31       28       22 ar
  32        1       29 1
  33        1       30 1
  34        1       31 1
  35        6       32 1
  36        9       33 1
  37       10       34 1
  38       11       35 1
  39       23       36 1
  40       24       37 1
  41       25       38 1
  42       27       39 1
  43       27       40 1
  44       27       41 1
  45       28       42 1

@<TRIPOS>MOLECULE

  42   45
SMALL
USER_CHARGES
@<TRIPOS>ATOM
   1 C1          -1.8479    -3.8595    -0.8912 C.3          1    LIG   0.0000
   2 O2          -0.7646    -2.9470    -0.9929 O.3          1    LIG   0.0000
   3 C3           0.1087    -2.9974    -0.0178 C.2          1    LIG   0.0000
   4 O4          -0.0392    -3.7795     0.8803 O.2          1    LIG   0.0000
   5 C5           1.2550    -2.1074    -0.0236 C.ar         1    LIG   0.0000
   6 C6           2.4705    -2.7789    -0.0378 C.ar         1    LIG   0.0000
   7 C7           3.6285    -2.0123    -0.0440 C.ar         1    LIG   0.0000
   8 C8           4.8884    -2.7281    -0.0556 C.2          1    LIG   0.0000
   9 C9           6.1326    -2.1832    -0.0661 C.2          1    LIG   0.0000
  10 C10          7.1696    -3.1534    -0.0747 C.2          1    LIG   0.0000
  11 C11          6.7978    -4.4642    -0.0704 C.2          1    LIG   0.0000
  12 S12          5.0910    -4.4203    -0.0623 S.3          1    LIG   0.0000
  13 N13          3.5550    -0.6713    -0.0380 N.ar         1    LIG   0.0000
  14 C14          2.3942     0.0110    -0.0232 C.ar         1    LIG   0.0000
  15 C15          1.1959    -0.7039    -0.0173 C.ar         1    LIG   0.0000
  16 C16         -0.0232     0.0463     0.0002 C.2          1    LIG   0.0000
  17 O17         -1.1437    -0.4456     0.0118 O.2          1    LIG   0.0000
  18 N18         -0.0134     1.4079     0.0114 N.pl3        1    LIG  -1.0000
  19 C19          1.1833     2.0763     0.0031 C.2          1    LIG   0.0000
  20 S20          1.1414     3.6857     0.0144 S.2          1    LIG   0.0000
  21 N21          2.3703     1.3867    -0.0142 N.pl3        1    LIG   0.0000
  22 C22          3.5542     2.1339    -0.0223 C.ar         1    LIG   0.0000
  23 C23          3.6306     3.2891    -0.7937 C.ar         1    LIG   0.0000
  24 C24          4.8119     4.0232    -0.7942 C.ar         1    LIG   0.0000
  25 C25          5.9047     3.6154    -0.0366 C.ar         1    LIG   0.0000
  26 C26          5.8061     2.4572     0.7274 C.ar         1    LIG   0.0000
  27 C27          6.9950     2.0029     1.5584 C.3          1    LIG   0.0000
  28 C28          4.6347     1.7075     0.7425 C.ar         1    LIG   0.0000
  29 H           -2.4555    -3.7445    -1.6771 H            1    LIG   0.0000
  30 H           -1.4953    -4.7951    -0.8766 H            1    LIG   0.0000
  31 H           -2.3557    -3.6814    -0.0483 H            1    LIG   0.0000
  32 H            2.5104    -3.7781    -0.0434 H            1    LIG   0.0000
  33 H            6.3014    -1.1975    -0.0676 H            1    LIG   0.0000
  34 H            8.1330    -2.8855    -0.0835 H            1    LIG   0.0000
  35 H            7.3904    -5.2696    -0.0716 H            1    LIG   0.0000
  36 H            2.8477     3.5873    -1.3397 H            1    LIG   0.0000
  37 H            4.8764     4.8545    -1.3462 H            1    LIG   0.0000
  38 H            6.7508     4.1484    -0.0411 H            1    LIG   0.0000
  39 H            7.7512     2.6460     1.4378 H            1    LIG   0.0000
  40 H            6.7347     1.9716     2.5234 H            1    LIG   0.0000
  41 H            7.2813     1.0922     1.2606 H            1    LIG   0.0000
  42 H            4.5704     0.8759     1.2941 H            1    LIG   0.0000
@<TRIPOS>BOND
   1        1        2 1
   2        2        3 1
   3        3        4 2
   4        3        5 1
   5        5        6 ar
   6        6        7 ar
   7        7        8 1
   8        8        9 2
   9        9       10 1
  10       10       11 2
  11       11       12 1
  12       12        8 1
  13        7       13 ar
  14       13       14 ar
  15       14       15 ar
  16       15        5 ar
  17       15       16 1
  18       16       17 2
  19       16       18 1
  20       18       19 1
  21       19       20 2
  22       19       21 1
  23       21       14 1
  24       21       22 1
  25       22       23 ar
  26       23       24 ar
  27       24       25 ar
  28       25       26 ar
  29       26       27 1
  30       26       28 ar
  31       28       22 ar
  32        1       29 1
  33        1       30 1
  34        1       31 1
  35        6       32 1
  36        9       33 1
  37       10       34 1
  38       11       35 1
  39       23       36 1
  40       24       37 1
  41       25       38 1
  42       27       39 1
  43       27       40 1
  44       27       41 1
  45       28       42 1

@<TRIPOS>MOLECULE

  42   45
SMALL
USER_CHARGES
@<TRIPOS>ATOM
   1 C1          -1.8479    -3.8595    -0.8912 C.3          1    LIG   0.0000
   2 O2          -0.7646    -2.9470    -0.9929 O.3          1    LIG   0.0000
   3 C3           0.1087    -2.9974    -0.0178 C.2          1    LIG   0.0000
   4 O4          -0.0392    -3.7795     0.8803 O.2          1    LIG   0.0000
   5 C5           1.2550    -2.1074    -0.0236 C.ar         1    LIG   0.0000
   6 C6           2.4705    -2.7789    -0.0378 C.ar         1    LIG   0.0000
   7 C7           3.6285    -2.0123    -0.0440 C.ar         1    LIG   0.0000
   8 C8           4.8884    -2.7281    -0.0556 C.2          1    LIG   0.0000
   9 C9           5.0572    -4.0760    -0.0580 C.2          1    LIG   0.0000
  10 C10          6.4214    -4.4702    -0.0715 C.2          1    LIG   0.0000
  11 C11          7.3570    -3.4797    -0.0810 C.2          1    LIG   0.0000
  12 S12          6.4457    -2.0360    -0.0650 S.3          1    LIG   0.0000
  13 N13          3.5550    -0.6713    -0.0380 N.ar         1    LIG   0.0000
  14 C14          2.3942     0.0110    -0.0232 C.ar         1    LIG   0.0000
  15 C15          1.1959    -0.7039    -0.0173 C.ar         1    LIG   0.0000
  16 C16         -0.0232     0.0463     0.0002 C.2          1    LIG   0.0000
  17 O17         -1.1437    -0.4456     0.0118 O.2          1    LIG   0.0000
  18 N18         -0.0134     1.4079     0.0114 N.pl3        1    LIG  -1.0000
  19 C19          1.1833     2.0763     0.0031 C.2          1    LIG   0.0000
  20 S20          1.1414     3.6857     0.0144 S.2          1    LIG   0.0000
  21 N21          2.3703     1.3867    -0.0142 N.pl3        1    LIG   0.0000
  22 C22          3.5542     2.1339    -0.0223 C.ar         1    LIG   0.0000
  23 C23          3.6306     3.2891    -0.7937 C.ar         1    LIG   0.0000
  24 C24          4.8119     4.0232    -0.7942 C.ar         1    LIG   0.0000
  25 C25          5.9047     3.6154    -0.0366 C.ar         1    LIG   0.0000
  26 C26          5.8061     2.4572     0.7274 C.ar         1    LIG   0.0000
  27 C27          6.9950     2.0029     1.5584 C.3          1    LIG   0.0000
  28 C28          4.6347     1.7075     0.7425 C.ar         1    LIG   0.0000
  29 H           -2.4555    -3.7445    -1.6771 H            1    LIG   0.0000
  30 H           -1.4953    -4.7951    -0.8766 H            1    LIG   0.0000
  31 H           -2.3557    -3.6814    -0.0483 H            1    LIG   0.0000
  32 H            2.5104    -3.7781    -0.0434 H            1    LIG   0.0000
  33 H            4.2969    -4.7256    -0.0511 H            1    LIG   0.0000
  34 H            6.6846    -5.4349    -0.0739 H            1    LIG   0.0000
  35 H            8.3523    -3.5765    -0.0943 H            1    LIG   0.0000
  36 H            2.8477     3.5873    -1.3397 H            1    LIG   0.0000
  37 H            4.8764     4.8545    -1.3462 H            1    LIG   0.0000
  38 H            6.7508     4.1484    -0.0411 H            1    LIG   0.0000
  39 H            7.7512     2.6460     1.4378 H            1    LIG   0.0000
  40 H            6.7347     1.9716     2.5234 H            1    LIG   0.0000
  41 H            7.2813     1.0922     1.2606 H            1    LIG   0.0000
  42 H            4.5704     0.8759     1.2941 H            1    LIG   0.0000
@<TRIPOS>BOND
   1        1        2 1
   2        2        3 1
   3        3        4 2
   4        3        5 1
   5        5        6 ar
   6        6        7 ar
   7        7        8 1
   8        8        9 2
   9        9       10 1
  10       10       11 2
  11       11       12 1
  12       12        8 1
  13        7       13 ar
  14       13       14 ar
  15       14       15 ar
  16       15        5 ar
  17       15       16 1
  18       16       17 2
  19       16       18 1
  20       18       19 1
  21       19       20 2
  22       19       21 1
  23       21       14 1
  24       21       22 1
  25       22       23 ar
  26       23       24 ar
  27       24       25 ar
  28       25       26 ar
  29       26       27 1
  30       26       28 ar
  31       28       22 ar
  32        1       29 1
  33        1       30 1
  34        1       31 1
  35        6       32 1
  36        9       33 1
  37       10       34 1
  38       11       35 1
  39       23       36 1
  40       24       37 1
  41       25       38 1
  42       27       39 1
  43       27       40 1
  44       27       41 1
  45       28       42 1

@<TRIPOS>MOLECULE

  42   45
SMALL
USER_CHARGES
@<TRIPOS>ATOM
   1 C1          -1.8479    -3.8595    -0.8912 C.3          1    LIG   0.0000
   2 O2          -0.7646    -2.9470    -0.9929 O.3          1    LIG   0.0000
   3 C3           0.1087    -2.9974    -0.0178 C.2          1    LIG   0.0000
   4 O4          -0.0392    -3.7795     0.8803 O.2          1    LIG   0.0000
   5 C5           1.2550    -2.1074    -0.0236 C.ar         1    LIG   0.0000
   6 C6           2.4705    -2.7789    -0.0378 C.ar         1    LIG   0.0000
   7 C7           3.6285    -2.0123    -0.0440 C.ar         1    LIG   0.0000
   8 C8           4.8884    -2.7281    -0.0556 C.2          1    LIG   0.0000
   9 C9           6.1326    -2.1832    -0.0661 C.2          1    LIG   0.0000
  10 C10          7.1696    -3.1534    -0.0747 C.2          1    LIG   0.0000
  11 C11          6.7978    -4.4642    -0.0704 C.2          1    LIG   0.0000
  12 S12          5.0910    -4.4203    -0.0623 S.3          1    LIG   0.0000
  13 N13          3.5550    -0.6713    -0.0380 N.ar         1    LIG   0.0000
  14 C14          2.3942     0.0110    -0.0232 C.ar         1    LIG   0.0000
  15 C15          1.1959    -0.7039    -0.0173 C.ar         1    LIG   0.0000
  16 C16         -0.0232     0.0463     0.0002 C.2          1    LIG   0.0000
  17 O17         -1.1437    -0.4456     0.0118 O.2          1    LIG   0.0000
  18 N18         -0.0134     1.4079     0.0114 N.pl3        1    LIG  -1.0000
  19 C19          1.1833     2.0763     0.0031 C.2          1    LIG   0.0000
  20 S20          1.1414     3.6857     0.0144 S.2          1    LIG   0.0000
  21 N21          2.3703     1.3867    -0.0142 N.pl3        1    LIG   0.0000
  22 C22          3.5542     2.1339    -0.0223 C.ar         1    LIG   0.0000
  23 C23          4.6203     1.7208    -0.8150 C.ar         1    LIG   0.0000
  24 C24          5.7915     2.4708    -0.8148 C.ar         1    LIG   0.0000
  25 C25          5.9027     3.6186    -0.0372 C.ar         1    LIG   0.0000
  26 C26          4.8242     4.0132     0.7477 C.ar         1    LIG   0.0000
  27 C27          4.9360     5.2658     1.6015 C.3          1    LIG   0.0000
  28 C28          3.6436     3.2781     0.7632 C.ar         1    LIG   0.0000
  29 H           -2.4555    -3.7445    -1.6771 H            1    LIG   0.0000
  30 H           -1.4953    -4.7951    -0.8766 H            1    LIG   0.0000
  31 H           -2.3557    -3.6814    -0.0483 H            1    LIG   0.0000
  32 H            2.5104    -3.7781    -0.0434 H            1    LIG   0.0000
  33 H            6.3014    -1.1975    -0.0676 H            1    LIG   0.0000
  34 H            8.1330    -2.8855    -0.0835 H            1    LIG   0.0000
  35 H            7.3904    -5.2696    -0.0716 H            1    LIG   0.0000
  36 H            4.5455     0.8968    -1.3765 H            1    LIG   0.0000
  37 H            6.5634     2.1812    -1.3808 H            1    LIG   0.0000
  38 H            6.7476     4.1535    -0.0423 H            1    LIG   0.0000
  39 H            5.8405     5.6740     1.4775 H            1    LIG   0.0000
  40 H            4.2336     5.9215     1.3248 H            1    LIG   0.0000
  41 H            4.8076     5.0258     2.5637 H            1    LIG   0.0000
  42 H            2.8720     3.5674     1.3297 H            1    LIG   0.0000
@<TRIPOS>BOND
   1        1        2 1
   2        2        3 1
   3        3        4 2
   4        3        5 1
   5        5        6 ar
   6        6        7 ar
   7        7        8 1
   8        8        9 2
   9        9       10 1
  10       10       11 2
  11       11       12 1
  12       12        8 1
  13        7       13 ar
  14       13       14 ar
  15       14       15 ar
  16       15        5 ar
  17       15       16 1
  18       16       17 2
  19       16       18 1
  20       18       19 1
  21       19       20 2
  22       19       21 1
  23       21       14 1
  24       21       22 1
  25       22       23 ar
  26       23       24 ar
  27       24       25 ar
  28       25       26 ar
  29       26       27 1
  30       26       28 ar
  31       28       22 ar
  32        1       29 1
  33        1       30 1
  34        1       31 1
  35        6       32 1
  36        9       33 1
  37       10       34 1
  38       11       35 1
  39       23       36 1
  40       24       37 1
  41       25       38 1
  42       27       39 1
  43       27       40 1
  44       27       41 1
  45       28       42 1

@<TRIPOS>MOLECULE

  42   45
SMALL
USER_CHARGES
@<TRIPOS>ATOM
   1 C1          -1.8479    -3.8595    -0.8912 C.3          1    LIG   0.0000
   2 O2          -0.7646    -2.9470    -0.9929 O.3          1    LIG   0.0000
   3 C3           0.1087    -2.9974    -0.0178 C.2          1    LIG   0.0000
   4 O4          -0.0392    -3.7795     0.8803 O.2          1    LIG   0.0000
   5 C5           1.2550    -2.1074    -0.0236 C.ar         1    LIG   0.0000
   6 C6           2.4705    -2.7789    -0.0378 C.ar         1    LIG   0.0000
   7 C7           3.6285    -2.0123    -0.0440 C.ar         1    LIG   0.0000
   8 C8           4.8884    -2.7281    -0.0556 C.2          1    LIG   0.0000
   9 C9           5.0572    -4.0760    -0.0580 C.2          1    LIG   0.0000
  10 C10          6.4214    -4.4702    -0.0715 C.2          1    LIG   0.0000
  11 C11          7.3570    -3.4797    -0.0810 C.2          1    LIG   0.0000
  12 S12          6.4457    -2.0360    -0.0650 S.3          1    LIG   0.0000
  13 N13          3.5550    -0.6713    -0.0380 N.ar         1    LIG   0.0000
  14 C14          2.3942     0.0110    -0.0232 C.ar         1    LIG   0.0000
  15 C15          1.1959    -0.7039    -0.0173 C.ar         1    LIG   0.0000
  16 C16         -0.0232     0.0463     0.0002 C.2          1    LIG   0.0000
  17 O17         -1.1437    -0.4456     0.0118 O.2          1    LIG   0.0000
  18 N18         -0.0134     1.4079     0.0114 N.pl3        1    LIG  -1.0000
  19 C19          1.1833     2.0763     0.0031 C.2          1    LIG   0.0000
  20 S20          1.1414     3.6857     0.0144 S.2          1    LIG   0.0000
  21 N21          2.3703     1.3867    -0.0142 N.pl3        1    LIG   0.0000
  22 C22          3.5542     2.1339    -0.0223 C.ar         1    LIG   0.0000
  23 C23          4.6203     1.7208    -0.8150 C.ar         1    LIG   0.0000
  24 C24          5.7915     2.4708    -0.8148 C.ar         1    LIG   0.0000
  25 C25          5.9027     3.6186    -0.0372 C.ar         1    LIG   0.0000
  26 C26          4.8242     4.0132     0.7477 C.ar         1    LIG   0.0000
  27 C27          4.9360     5.2658     1.6015 C.3          1    LIG   0.0000
  28 C28          3.6436     3.2781     0.7632 C.ar         1    LIG   0.0000
  29 H           -2.4555    -3.7445    -1.6771 H            1    LIG   0.0000
  30 H           -1.4953    -4.7951    -0.8766 H            1    LIG   0.0000
  31 H           -2.3557    -3.6814    -0.0483 H            1    LIG   0.0000
  32 H            2.5104    -3.7781    -0.0434 H            1    LIG   0.0000
  33 H            4.2969    -4.7256    -0.0511 H            1    LIG   0.0000
  34 H            6.6846    -5.4349    -0.0739 H            1    LIG   0.0000
  35 H            8.3523    -3.5765    -0.0943 H            1    LIG   0.0000
  36 H            4.5455     0.8968    -1.3765 H            1    LIG   0.0000
  37 H            6.5634     2.1812    -1.3808 H            1    LIG   0.0000
  38 H            6.7476     4.1535    -0.0423 H            1    LIG   0.0000
  39 H            5.8405     5.6740     1.4775 H            1    LIG   0.0000
  40 H            4.2336     5.9215     1.3248 H            1    LIG   0.0000
  41 H            4.8076     5.0258     2.5637 H            1    LIG   0.0000
  42 H            2.8720     3.5674     1.3297 H            1    LIG   0.0000
@<TRIPOS>BOND
   1        1        2 1
   2        2        3 1
   3        3        4 2
   4        3        5 1
   5        5        6 ar
   6        6        7 ar
   7        7        8 1
   8        8        9 2
   9        9       10 1
  10       10       11 2
  11       11       12 1
  12       12        8 1
  13        7       13 ar
  14       13       14 ar
  15       14       15 ar
  16       15        5 ar
  17       15       16 1
  18       16       17 2
  19       16       18 1
  20       18       19 1
  21       19       20 2
  22       19       21 1
  23       21       14 1
  24       21       22 1
  25       22       23 ar
  26       23       24 ar
  27       24       25 ar
  28       25       26 ar
  29       26       27 1
  30       26       28 ar
  31       28       22 ar
  32        1       29 1
  33        1       30 1
  34        1       31 1
  35        6       32 1
  36        9       33 1
  37       10       34 1
  38       11       35 1
  39       23       36 1
  40       24       37 1
  41       25       38 1
  42       27       39 1
  43       27       40 1
  44       27       41 1
  45       28       42 1

@<TRIPOS>MOLECULE

  42   45
SMALL
USER_CHARGES
@<TRIPOS>ATOM
   1 C1          -1.8479    -3.8595    -0.8912 C.3          1    LIG   0.0000
   2 O2          -0.7646    -2.9470    -0.9929 O.3          1    LIG   0.0000
   3 C3           0.1087    -2.9974    -0.0178 C.2          1    LIG   0.0000
   4 O4          -0.0392    -3.7795     0.8803 O.2          1    LIG   0.0000
   5 C5           1.2550    -2.1074    -0.0236 C.ar         1    LIG   0.0000
   6 C6           2.4705    -2.7789    -0.0378 C.ar         1    LIG   0.0000
   7 C7           3.6285    -2.0123    -0.0440 C.ar         1    LIG   0.0000
   8 C8           4.8884    -2.7281    -0.0556 C.2          1    LIG   0.0000
   9 C9           6.1326    -2.1832    -0.0661 C.2          1    LIG   0.0000
  10 C10          7.1696    -3.1534    -0.0747 C.2          1    LIG   0.0000
  11 C11          6.7978    -4.4642    -0.0704 C.2          1    LIG   0.0000
  12 S12          5.0910    -4.4203    -0.0623 S.3          1    LIG   0.0000
  13 N13          3.5550    -0.6713    -0.0380 N.ar         1    LIG   0.0000
  14 C14          2.3942     0.0110    -0.0232 C.ar         1    LIG   0.0000
  15 C15          1.1959    -0.7039    -0.0173 C.ar         1    LIG   0.0000
  16 C16         -0.0232     0.0463     0.0002 C.2          1    LIG   0.0000
  17 O17         -1.1437    -0.4456     0.0118 O.2          1    LIG   0.0000
  18 N18         -0.0134     1.4079     0.0114 N.pl3        1    LIG  -1.0000
  19 C19          1.1833     2.0763     0.0031 C.2          1    LIG   0.0000
  20 S20          1.1414     3.6857     0.0144 S.2          1    LIG   0.0000
  21 N21          2.3703     1.3867    -0.0142 N.pl3        1    LIG   0.0000
  22 C22          3.5542     2.1339    -0.0223 C.ar         1    LIG   0.0000
  23 C23          4.6374     1.7105     0.7411 C.ar         1    LIG   0.0000
  24 C24          5.8083     2.4610     0.7255 C.ar         1    LIG   0.0000
  25 C25          5.9030     3.6181    -0.0403 C.ar         1    LIG   0.0000
  26 C26          4.8076     4.0228    -0.7961 C.ar         1    LIG   0.0000
  27 C27          4.9008     5.2863    -1.6359 C.3          1    LIG   0.0000
  28 C28          3.6267     3.2879    -0.7951 C.ar         1    LIG   0.0000
  29 H           -2.4555    -3.7445    -1.6771 H            1    LIG   0.0000
  30 H           -1.4953    -4.7951    -0.8766 H            1    LIG   0.0000
  31 H           -2.3557    -3.6814    -0.0483 H            1    LIG   0.0000
  32 H            2.5104    -3.7781    -0.0434 H            1    LIG   0.0000
  33 H            6.3014    -1.1975    -0.0676 H            1    LIG   0.0000
  34 H            8.1330    -2.8855    -0.0835 H            1    LIG   0.0000
  35 H            7.3904    -5.2696    -0.0716 H            1    LIG   0.0000
  36 H            4.5751     0.8789     1.2929 H            1    LIG   0.0000
  37 H            6.5919     2.1648     1.2716 H            1    LIG   0.0000
  38 H            6.7481     4.1526    -0.0475 H            1    LIG   0.0000
  39 H            5.8079     5.6929    -1.5267 H            1    LIG   0.0000
  40 H            4.7511     5.0589    -2.5981 H            1    LIG   0.0000
  41 H            4.2049     5.9384    -1.3353 H            1    LIG   0.0000
  42 H            2.8429     3.5844    -1.3408 H            1    LIG   0.0000
@<TRIPOS>BOND
   1        1        2 1
   2        2        3 1
   3        3        4 2
   4        3        5 1
   5        5        6 ar
   6        6        7 ar
   7        7        8 1
   8        8        9 2
   9        9       10 1
  10       10       11 2
  11       11       12 1
  12       12        8 1
  13        7       13 ar
  14       13       14 ar
  15       14       15 ar
  16       15        5 ar
  17       15       16 1
  18       16       17 2
  19       16       18 1
  20       18       19 1
  21       19       20 2
  22       19       21 1
  23       21       14 1
  24       21       22 1
  25       22       23 ar
  26       23       24 ar
  27       24       25 ar
  28       25       26 ar
  29       26       27 1
  30       26       28 ar
  31       28       22 ar
  32        1       29 1
  33        1       30 1
  34        1       31 1
  35        6       32 1
  36        9       33 1
  37       10       34 1
  38       11       35 1
  39       23       36 1
  40       24       37 1
  41       25       38 1
  42       27       39 1
  43       27       40 1
  44       27       41 1
  45       28       42 1

@<TRIPOS>MOLECULE

  42   45
SMALL
USER_CHARGES
@<TRIPOS>ATOM
   1 C1          -1.8479    -3.8595    -0.8912 C.3          1    LIG   0.0000
   2 O2          -0.7646    -2.9470    -0.9929 O.3          1    LIG   0.0000
   3 C3           0.1087    -2.9974    -0.0178 C.2          1    LIG   0.0000
   4 O4          -0.0392    -3.7795     0.8803 O.2          1    LIG   0.0000
   5 C5           1.2550    -2.1074    -0.0236 C.ar         1    LIG   0.0000
   6 C6           2.4705    -2.7789    -0.0378 C.ar         1    LIG   0.0000
   7 C7           3.6285    -2.0123    -0.0440 C.ar         1    LIG   0.0000
   8 C8           4.8884    -2.7281    -0.0556 C.2          1    LIG   0.0000
   9 C9           5.0572    -4.0760    -0.0580 C.2          1    LIG   0.0000
  10 C10          6.4214    -4.4702    -0.0715 C.2          1    LIG   0.0000
  11 C11          7.3570    -3.4797    -0.0810 C.2          1    LIG   0.0000
  12 S12          6.4457    -2.0360    -0.0650 S.3          1    LIG   0.0000
  13 N13          3.5550    -0.6713    -0.0380 N.ar         1    LIG   0.0000
  14 C14          2.3942     0.0110    -0.0232 C.ar         1    LIG   0.0000
  15 C15          1.1959    -0.7039    -0.0173 C.ar         1    LIG   0.0000
  16 C16         -0.0232     0.0463     0.0002 C.2          1    LIG   0.0000
  17 O17         -1.1437    -0.4456     0.0118 O.2          1    LIG   0.0000
  18 N18         -0.0134     1.4079     0.0114 N.pl3        1    LIG  -1.0000
  19 C19          1.1833     2.0763     0.0031 C.2          1    LIG   0.0000
  20 S20          1.1414     3.6857     0.0144 S.2          1    LIG   0.0000
  21 N21          2.3703     1.3867    -0.0142 N.pl3        1    LIG   0.0000
  22 C22          3.5542     2.1339    -0.0223 C.ar         1    LIG   0.0000
  23 C23          4.6374     1.7105     0.7411 C.ar         1    LIG   0.0000
  24 C24          5.8083     2.4610     0.7255 C.ar         1    LIG   0.0000
  25 C25          5.9030     3.6181    -0.0403 C.ar         1    LIG   0.0000
  26 C26          4.8076     4.0228    -0.7961 C.ar         1    LIG   0.0000
  27 C27          4.9008     5.2863    -1.6359 C.3          1    LIG   0.0000
  28 C28          3.6267     3.2879    -0.7951 C.ar         1    LIG   0.0000
  29 H           -2.4555    -3.7445    -1.6771 H            1    LIG   0.0000
  30 H           -1.4953    -4.7951    -0.8766 H            1    LIG   0.0000
  31 H           -2.3557    -3.6814    -0.0483 H            1    LIG   0.0000
  32 H            2.5104    -3.7781    -0.0434 H            1    LIG   0.0000
  33 H            4.2969    -4.7256    -0.0511 H            1    LIG   0.0000
  34 H            6.6846    -5.4349    -0.0739 H            1    LIG   0.0000
  35 H            8.3523    -3.5765    -0.0943 H            1    LIG   0.0000
  36 H            4.5751     0.8789     1.2929 H            1    LIG   0.0000
  37 H            6.5919     2.1648     1.2716 H            1    LIG   0.0000
  38 H            6.7481     4.1526    -0.0475 H            1    LIG   0.0000
  39 H            5.8079     5.6929    -1.5267 H            1    LIG   0.0000
  40 H            4.7511     5.0589    -2.5981 H            1    LIG   0.0000
  41 H            4.2049     5.9384    -1.3353 H            1    LIG   0.0000
  42 H            2.8429     3.5844    -1.3408 H            1    LIG   0.0000
@<TRIPOS>BOND
   1        1        2 1
   2        2        3 1
   3        3        4 2
   4        3        5 1
   5        5        6 ar
   6        6        7 ar
   7        7        8 1
   8        8        9 2
   9        9       10 1
  10       10       11 2
  11       11       12 1
  12       12        8 1
  13        7       13 ar
  14       13       14 ar
  15       14       15 ar
  16       15        5 ar
  17       15       16 1
  18       16       17 2
  19       16       18 1
  20       18       19 1
  21       19       20 2
  22       19       21 1
  23       21       14 1
  24       21       22 1
  25       22       23 ar
  26       23       24 ar
  27       24       25 ar
  28       25       26 ar
  29       26       27 1
  30       26       28 ar
  31       28       22 ar
  32        1       29 1
  33        1       30 1
  34        1       31 1
  35        6       32 1
  36        9       33 1
  37       10       34 1
  38       11       35 1
  39       23       36 1
  40       24       37 1
  41       25       38 1
  42       27       39 1
  43       27       40 1
  44       27       41 1
  45       28       42 1

@<TRIPOS>MOLECULE

  42   45
SMALL
USER_CHARGES
@<TRIPOS>ATOM
   1 C1          -1.8479    -3.8595    -0.8912 C.3          1    LIG   0.0000
   2 O2          -0.7646    -2.9470    -0.9929 O.3          1    LIG   0.0000
   3 C3           0.1087    -2.9974    -0.0178 C.2          1    LIG   0.0000
   4 O4          -0.0392    -3.7795     0.8803 O.2          1    LIG   0.0000
   5 C5           1.2550    -2.1074    -0.0236 C.ar         1    LIG   0.0000
   6 C6           2.4705    -2.7789    -0.0378 C.ar         1    LIG   0.0000
   7 C7           3.6285    -2.0123    -0.0440 C.ar         1    LIG   0.0000
   8 C8           4.8884    -2.7281    -0.0556 C.2          1    LIG   0.0000
   9 C9           6.1326    -2.1832    -0.0661 C.2          1    LIG   0.0000
  10 C10          7.1696    -3.1534    -0.0747 C.2          1    LIG   0.0000
  11 C11          6.7978    -4.4642    -0.0704 C.2          1    LIG   0.0000
  12 S12          5.0910    -4.4203    -0.0623 S.3          1    LIG   0.0000
  13 N13          3.5550    -0.6713    -0.0380 N.ar         1    LIG   0.0000
  14 C14          2.3942     0.0110    -0.0232 C.ar         1    LIG   0.0000
  15 C15          1.1959    -0.7039    -0.0173 C.ar         1    LIG   0.0000
  16 C16         -0.0232     0.0463     0.0002 C.2          1    LIG   0.0000
  17 O17         -1.1437    -0.4456     0.0118 O.2          1    LIG   0.0000
  18 N18         -0.0134     1.4079     0.0114 N.pl3        1    LIG  -1.0000
  19 C19          1.1833     2.0763     0.0031 C.2          1    LIG   0.0000
  20 S20          1.1414     3.6857     0.0144 S.2          1    LIG   0.0000
  21 N21          2.3703     1.3867    -0.0142 N.pl3        1    LIG   0.0000
  22 C22          3.5542     2.1339    -0.0223 C.ar         1    LIG   0.0000
  23 C23          3.6478     3.2788     0.7624 C.ar         1    LIG   0.0000
  24 C24          4.8287     4.0134     0.7460 C.ar         1    LIG   0.0000
  25 C25          5.9049     3.6150    -0.0397 C.ar         1    LIG   0.0000
  26 C26          5.7894     2.4668    -0.8164 C.ar         1    LIG   0.0000
  27 C27          6.9598     2.0234    -1.6790 C.3          1    LIG   0.0000
  28 C28          4.6178     1.7173    -0.8157 C.ar         1    LIG   0.0000
  29 H           -2.4555    -3.7445    -1.6771 H            1    LIG   0.0000
  30 H           -1.4953    -4.7951    -0.8766 H            1    LIG   0.0000
  31 H           -2.3557    -3.6814    -0.0483 H            1    LIG   0.0000
  32 H            2.5104    -3.7781    -0.0434 H            1    LIG   0.0000
  33 H            6.3014    -1.1975    -0.0676 H            1    LIG   0.0000
  34 H            8.1330    -2.8855    -0.0835 H            1    LIG   0.0000
  35 H            7.3904    -5.2696    -0.0716 H            1    LIG   0.0000
  36 H            2.8773     3.5694     1.3298 H            1    LIG   0.0000
  37 H            4.9049     4.8382     1.3062 H            1    LIG   0.0000
  38 H            6.7514     4.1474    -0.0462 H            1    LIG   0.0000
  39 H            7.7186     2.6649    -1.5665 H            1    LIG   0.0000
  40 H            7.2522     1.1089    -1.3995 H            1    LIG   0.0000
  41 H            6.6785     2.0048    -2.6384 H            1    LIG   0.0000
  42 H            4.5414     0.8928    -1.3764 H            1    LIG   0.0000
@<TRIPOS>BOND
   1        1        2 1
   2        2        3 1
   3        3        4 2
   4        3        5 1
   5        5        6 ar
   6        6        7 ar
   7        7        8 1
   8        8        9 2
   9        9       10 1
  10       10       11 2
  11       11       12 1
  12       12        8 1
  13        7       13 ar
  14       13       14 ar
  15       14       15 ar
  16       15        5 ar
  17       15       16 1
  18       16       17 2
  19       16       18 1
  20       18       19 1
  21       19       20 2
  22       19       21 1
  23       21       14 1
  24       21       22 1
  25       22       23 ar
  26       23       24 ar
  27       24       25 ar
  28       25       26 ar
  29       26       27 1
  30       26       28 ar
  31       28       22 ar
  32        1       29 1
  33        1       30 1
  34        1       31 1
  35        6       32 1
  36        9       33 1
  37       10       34 1
  38       11       35 1
  39       23       36 1
  40       24       37 1
  41       25       38 1
  42       27       39 1
  43       27       40 1
  44       27       41 1
  45       28       42 1

@<TRIPOS>MOLECULE

  42   45
SMALL
USER_CHARGES
@<TRIPOS>ATOM
   1 C1          -1.8479    -3.8595    -0.8912 C.3          1    LIG   0.0000
   2 O2          -0.7646    -2.9470    -0.9929 O.3          1    LIG   0.0000
   3 C3           0.1087    -2.9974    -0.0178 C.2          1    LIG   0.0000
   4 O4          -0.0392    -3.7795     0.8803 O.2          1    LIG   0.0000
   5 C5           1.2550    -2.1074    -0.0236 C.ar         1    LIG   0.0000
   6 C6           2.4705    -2.7789    -0.0378 C.ar         1    LIG   0.0000
   7 C7           3.6285    -2.0123    -0.0440 C.ar         1    LIG   0.0000
   8 C8           4.8884    -2.7281    -0.0556 C.2          1    LIG   0.0000
   9 C9           5.0572    -4.0760    -0.0580 C.2          1    LIG   0.0000
  10 C10          6.4214    -4.4702    -0.0715 C.2          1    LIG   0.0000
  11 C11          7.3570    -3.4797    -0.0810 C.2          1    LIG   0.0000
  12 S12          6.4457    -2.0360    -0.0650 S.3          1    LIG   0.0000
  13 N13          3.5550    -0.6713    -0.0380 N.ar         1    LIG   0.0000
  14 C14          2.3942     0.0110    -0.0232 C.ar         1    LIG   0.0000
  15 C15          1.1959    -0.7039    -0.0173 C.ar         1    LIG   0.0000
  16 C16         -0.0232     0.0463     0.0002 C.2          1    LIG   0.0000
  17 O17         -1.1437    -0.4456     0.0118 O.2          1    LIG   0.0000
  18 N18         -0.0134     1.4079     0.0114 N.pl3        1    LIG  -1.0000
  19 C19          1.1833     2.0763     0.0031 C.2          1    LIG   0.0000
  20 S20          1.1414     3.6857     0.0144 S.2          1    LIG   0.0000
  21 N21          2.3703     1.3867    -0.0142 N.pl3        1    LIG   0.0000
  22 C22          3.5542     2.1339    -0.0223 C.ar         1    LIG   0.0000
  23 C23          3.6478     3.2788     0.7624 C.ar         1    LIG   0.0000
  24 C24          4.8287     4.0134     0.7460 C.ar         1    LIG   0.0000
  25 C25          5.9049     3.6150    -0.0397 C.ar         1    LIG   0.0000
  26 C26          5.7894     2.4668    -0.8164 C.ar         1    LIG   0.0000
  27 C27          6.9598     2.0234    -1.6790 C.3          1    LIG   0.0000
  28 C28          4.6178     1.7173    -0.8157 C.ar         1    LIG   0.0000
  29 H           -2.4555    -3.7445    -1.6771 H            1    LIG   0.0000
  30 H           -1.4953    -4.7951    -0.8766 H            1    LIG   0.0000
  31 H           -2.3557    -3.6814    -0.0483 H            1    LIG   0.0000
  32 H            2.5104    -3.7781    -0.0434 H            1    LIG   0.0000
  33 H            4.2969    -4.7256    -0.0511 H            1    LIG   0.0000
  34 H            6.6846    -5.4349    -0.0739 H            1    LIG   0.0000
  35 H            8.3523    -3.5765    -0.0943 H            1    LIG   0.0000
  36 H            2.8773     3.5694     1.3298 H            1    LIG   0.0000
  37 H            4.9049     4.8382     1.3062 H            1    LIG   0.0000
  38 H            6.7514     4.1474    -0.0462 H            1    LIG   0.0000
  39 H            7.7186     2.6649    -1.5665 H            1    LIG   0.0000
  40 H            7.2522     1.1089    -1.3995 H            1    LIG   0.0000
  41 H            6.6785     2.0048    -2.6384 H            1    LIG   0.0000
  42 H            4.5414     0.8928    -1.3764 H            1    LIG   0.0000
@<TRIPOS>BOND
   1        1        2 1
   2        2        3 1
   3        3        4 2
   4        3        5 1
   5        5        6 ar
   6        6        7 ar
   7        7        8 1
   8        8        9 2
   9        9       10 1
  10       10       11 2
  11       11       12 1
  12       12        8 1
  13        7       13 ar
  14       13       14 ar
  15       14       15 ar
  16       15        5 ar
  17       15       16 1
  18       16       17 2
  19       16       18 1
  20       18       19 1
  21       19       20 2
  22       19       21 1
  23       21       14 1
  24       21       22 1
  25       22       23 ar
  26       23       24 ar
  27       24       25 ar
  28       25       26 ar
  29       26       27 1
  30       26       28 ar
  31       28       22 ar
  32        1       29 1
  33        1       30 1
  34        1       31 1
  35        6       32 1
  36        9       33 1
  37       10       34 1
  38       11       35 1
  39       23       36 1
  40       24       37 1
  41       25       38 1
  42       27       39 1
  43       27       40 1
  44       27       41 1
  45       28       42 1

