@<TRIPOS>MOLECULE
*****
 42 45 0 0 0
SMALL
USER_CHARGES

@<TRIPOS>ATOM
      1 C1         -1.8479   -3.8595   -0.8912 C.3     1  LIG1        0.0000
      2 O2         -0.7646   -2.9470   -0.9929 O.3     1  LIG1        0.0000
      3 C3          0.1087   -2.9974   -0.0178 C.2     1  LIG1        0.0000
      4 O4         -0.0392   -3.7795    0.8803 O.2     1  LIG1        0.0000
      5 C5          1.2550   -2.1074   -0.0236 C.3     1  LIG1        0.0000
      6 C6          2.4705   -2.7789   -0.0378 C.3     1  LIG1        0.0000
      7 C7          3.6285   -2.0123   -0.0440 C.3     1  LIG1        0.0000
      8 C8          4.8884   -2.7281   -0.0556 C.2     1  LIG1        0.0000
      9 C9          6.1326   -2.1832   -0.0661 C.2     1  LIG1        0.0000
     10 C10         7.1696   -3.1534   -0.0747 C.2     1  LIG1        0.0000
     11 C11         6.7978   -4.4642   -0.0704 C.2     1  LIG1        0.0000
     12 S12         5.0910   -4.4203   -0.0623 S.3     1  LIG1        0.0000
     13 N13         3.5550   -0.6713   -0.0380 N.pl3   1  LIG1        0.0000
     14 C14         2.3942    0.0110   -0.0232 C.3     1  LIG1        0.0000
     15 C15         1.1959   -0.7039   -0.0173 C.3     1  LIG1        0.0000
     16 C16        -0.0232    0.0463    0.0002 C.2     1  LIG1        0.0000
     17 O17        -1.1437   -0.4456    0.0118 O.2     1  LIG1        0.0000
     18 N18        -0.0134    1.4079    0.0114 N.am    1  LIG1       -1.0000
     19 C19         1.1833    2.0763    0.0031 C.2     1  LIG1        0.0000
     20 S20         1.1414    3.6857    0.0144 S.2     1  LIG1        0.0000
     21 N21         2.3703    1.3867   -0.0142 N.am    1  LIG1        0.0000
     22 C22         3.5542    2.1339   -0.0223 C.3     1  LIG1        0.0000
     23 C23         4.6374    1.7105    0.7411 C.3     1  LIG1        0.0000
     24 C24         5.8083    2.4610    0.7255 C.3     1  LIG1        0.0000
     25 C25         5.9030    3.6181   -0.0403 C.3     1  LIG1        0.0000
     26 C26         4.8076    4.0228   -0.7961 C.3     1  LIG1        0.0000
     27 C27         4.9008    5.2863   -1.6359 C.3     1  LIG1        0.0000
     28 C28         3.6267    3.2879   -0.7951 C.3     1  LIG1        0.0000
     29 H          -2.4555   -3.7445   -1.6771 H       1  LIG1        0.0000
     30 H          -1.4953   -4.7951   -0.8766 H       1  LIG1        0.0000
     31 H          -2.3557   -3.6814   -0.0483 H       1  LIG1        0.0000
     32 H           2.5104   -3.7781   -0.0434 H       1  LIG1        0.0000
     33 H           6.3014   -1.1975   -0.0676 H       1  LIG1        0.0000
     34 H           8.1330   -2.8855   -0.0835 H       1  LIG1        0.0000
     35 H           7.3904   -5.2696   -0.0716 H       1  LIG1        0.0000
     36 H           4.5751    0.8789    1.2929 H       1  LIG1        0.0000
     37 H           6.5919    2.1648    1.2716 H       1  LIG1        0.0000
     38 H           6.7481    4.1526   -0.0475 H       1  LIG1        0.0000
     39 H           5.8079    5.6929   -1.5267 H       1  LIG1        0.0000
     40 H           4.7511    5.0589   -2.5981 H       1  LIG1        0.0000
     41 H           4.2049    5.9384   -1.3353 H       1  LIG1        0.0000
     42 H           2.8429    3.5844   -1.3408 H       1  LIG1        0.0000
@<TRIPOS>BOND
     1     1     2    1
     2     2     3    1
     3     3     4    2
     4     3     5    1
     5     5     6   ar
     6     6     7   ar
     7     7     8    1
     8     8     9    2
     9     9    10    1
    10    10    11    2
    11    11    12    1
    12    12     8    1
    13     7    13   ar
    14    13    14   ar
    15    14    15   ar
    16    15     5   ar
    17    15    16    1
    18    16    17    2
    19    16    18    1
    20    18    19    1
    21    19    20    2
    22    19    21    1
    23    21    14    1
    24    21    22    1
    25    22    23   ar
    26    23    24   ar
    27    24    25   ar
    28    25    26   ar
    29    26    27    1
    30    26    28   ar
    31    28    22   ar
    32     1    29    1
    33     1    30    1
    34     1    31    1
    35     6    32    1
    36     9    33    1
    37    10    34    1
    38    11    35    1
    39    23    36    1
    40    24    37    1
    41    25    38    1
    42    27    39    1
    43    27    40    1
    44    27    41    1
    45    28    42    1
