@<TRIPOS>MOLECULE

  20   21
SMALL
USER_CHARGES
@<TRIPOS>ATOM
   1 C1           1.0000     1.0000     1.0000 C.3          1    LIG   0.0000
   2 S2           2.0450     2.0450     2.0450 S.3          1    LIG   0.0000
   3 C3           1.5712     3.6497     1.5712 C.2          1    LIG   0.0000
   4 C4           0.6087     3.9919     0.5878 C.ar         1    LIG  -1.0000
   5 C5           0.5149     5.4094     0.5493 C.ar         1    LIG   0.0000
   6 C6          -0.2508     6.3047    -0.1926 C.ar         1    LIG   0.0000
   7 C7          -0.0983     7.6765    -0.0269 C.ar         1    LIG   0.0000
   8 C8           0.8344     8.1376     0.8961 C.ar         1    LIG   0.0000
   9 C9           1.5927     7.2315     1.6301 C.ar         1    LIG   0.0000
  10 C10          1.4384     5.8581     1.4623 C.ar         1    LIG   0.0000
  11 N11          2.0390     4.7774     2.0390 N.2          1    LIG   1.0000
  12 H            0.8960     3.6452    -0.3051 H            1    LIG   0.0000
  13 H            2.7525     4.8403     2.7369 H            1    LIG   0.0000
  14 H            1.1925     0.0377     1.1925 H            1    LIG   0.0000
  15 H            0.0377     1.1925     1.1925 H            1    LIG   0.0000
  16 H            1.1925     1.1925     0.0377 H            1    LIG   0.0000
  17 H           -0.9176     5.9572    -0.8519 H            1    LIG   0.0000
  18 H           -0.6483     8.3189    -0.5606 H            1    LIG   0.0000
  19 H            0.9598     9.1204     1.0319 H            1    LIG   0.0000
  20 H            2.2612     7.5730     2.2908 H            1    LIG   0.0000
@<TRIPOS>BOND
   1        1        2 1
   2        2        3 1
   3        3        4 1
   4        4        5 1
   5        5        6 ar
   6        6        7 ar
   7        7        8 ar
   8        8        9 ar
   9        9       10 ar
  10       10        5 ar
  11       10       11 1
  12       11        3 2
  13        4       12 1
  14       11       13 1
  15        1       14 1
  16        1       15 1
  17        1       16 1
  18        6       17 1
  19        7       18 1
  20        8       19 1
  21        9       20 1

@<TRIPOS>MOLECULE

  20   21
SMALL
USER_CHARGES
@<TRIPOS>ATOM
   1 C1           1.0000     1.0000     1.0000 C.3          1    LIG   0.0000
   2 S2           2.0450     2.0450     2.0450 S.3          1    LIG   0.0000
   3 C3           1.5712     3.6497     1.5712 C.2          1    LIG   0.0000
   4 C4           0.2997     4.0478     1.0862 C.ar         1    LIG  -1.0000
   5 C5           0.3448     5.4490     0.8539 C.ar         1    LIG   0.0000
   6 C6          -0.5839     6.3806     0.3975 C.ar         1    LIG   0.0000
   7 C7          -0.2315     7.7162     0.2408 C.ar         1    LIG   0.0000
   8 C8           1.0678     8.1043     0.5498 C.ar         1    LIG   0.0000
   9 C9           1.9851     7.1627     1.0045 C.ar         1    LIG   0.0000
  10 C10          1.6300     5.8256     1.1605 C.ar         1    LIG   0.0000
  11 N11          2.3171     4.7234     1.5782 N.2          1    LIG   1.0000
  12 H            0.0950     3.5676     0.2332 H            1    LIG   0.0000
  13 H            3.2775     4.7354     1.8567 H            1    LIG   0.0000
  14 H            1.1925     0.0377     1.1925 H            1    LIG   0.0000
  15 H            0.0377     1.1925     1.1925 H            1    LIG   0.0000
  16 H            1.1925     1.1925     0.0377 H            1    LIG   0.0000
  17 H           -1.5144     6.0857     0.1801 H            1    LIG   0.0000
  18 H           -0.8989     8.3846    -0.0876 H            1    LIG   0.0000
  19 H            1.3425     9.0601     0.4452 H            1    LIG   0.0000
  20 H            2.9171     7.4515     1.2233 H            1    LIG   0.0000
@<TRIPOS>BOND
   1        1        2 1
   2        2        3 1
   3        3        4 1
   4        4        5 1
   5        5        6 ar
   6        6        7 ar
   7        7        8 ar
   8        8        9 ar
   9        9       10 ar
  10       10        5 ar
  11       10       11 1
  12       11        3 2
  13        4       12 1
  14       11       13 1
  15        1       14 1
  16        1       15 1
  17        1       16 1
  18        6       17 1
  19        7       18 1
  20        8       19 1
  21        9       20 1

@<TRIPOS>MOLECULE

  20   21
SMALL
USER_CHARGES
@<TRIPOS>ATOM
   1 C1           1.0000     1.0000     1.0000 C.3          1    LIG   0.0000
   2 S2           2.0450     2.0450     2.0450 S.3          1    LIG   0.0000
   3 C3           1.5712     3.6497     1.5712 C.2          1    LIG   0.0000
   4 C4           1.1138     4.0535     0.2912 C.ar         1    LIG  -1.0000
   5 C5           0.8082     5.4397     0.3587 C.ar         1    LIG   0.0000
   6 C6           0.3203     6.3647    -0.5604 C.ar         1    LIG   0.0000
   7 C7           0.1460     7.6968    -0.2026 C.ar         1    LIG   0.0000
   8 C8           0.4680     8.0875     1.0928 C.ar         1    LIG   0.0000
   9 C9           0.9548     7.1525     2.0003 C.ar         1    LIG   0.0000
  10 C10          1.1288     5.8191     1.6397 C.ar         1    LIG   0.0000
  11 N11          1.5782     4.7234     2.3171 N.2          1    LIG   1.0000
  12 H            1.8275     3.8949    -0.3910 H            1    LIG   0.0000
  13 H            1.8774     4.7397     3.2712 H            1    LIG   0.0000
  14 H            1.1925     0.0377     1.1925 H            1    LIG   0.0000
  15 H            0.0377     1.1925     1.1925 H            1    LIG   0.0000
  16 H            1.1925     1.1925     0.0377 H            1    LIG   0.0000
  17 H            0.0929     6.0678    -1.4878 H            1    LIG   0.0000
  18 H           -0.2040     8.3607    -0.8634 H            1    LIG   0.0000
  19 H            0.3495     9.0405     1.3717 H            1    LIG   0.0000
  20 H            1.1841     7.4435     2.9291 H            1    LIG   0.0000
@<TRIPOS>BOND
   1        1        2 1
   2        2        3 1
   3        3        4 1
   4        4        5 1
   5        5        6 ar
   6        6        7 ar
   7        7        8 ar
   8        8        9 ar
   9        9       10 ar
  10       10        5 ar
  11       10       11 1
  12       11        3 2
  13        4       12 1
  14       11       13 1
  15        1       14 1
  16        1       15 1
  17        1       16 1
  18        6       17 1
  19        7       18 1
  20        8       19 1
  21        9       20 1

@<TRIPOS>MOLECULE

  20   21
SMALL
USER_CHARGES
@<TRIPOS>ATOM
   1 C1           1.0000     1.0000     1.0000 C.3          1    LIG   0.0000
   2 S2           2.0450     2.0450     2.0450 S.3          1    LIG   0.0000
   3 C3           1.5712     3.6497     1.5712 C.2          1    LIG   0.0000
   4 C4           2.0727     4.8688     2.0935 C.ar         1    LIG  -1.0000
   5 C5           1.4340     5.9318     1.3996 C.ar         1    LIG   0.0000
   6 C6           1.5256     7.3194     1.4675 C.ar         1    LIG   0.0000
   7 C7           0.7306     8.1238     0.6591 C.ar         1    LIG   0.0000
   8 C8          -0.1585     7.5149    -0.2202 C.ar         1    LIG   0.0000
   9 C9          -0.2396     6.1274    -0.2770 C.ar         1    LIG   0.0000
  10 C10          0.5575     5.3238     0.5337 C.ar         1    LIG   0.0000
  11 N11          0.6752     3.9720     0.6752 N.2          1    LIG   1.0000
  12 H            1.8697     4.9296     3.0708 H            1    LIG   0.0000
  13 H            0.1397     3.3065     0.1553 H            1    LIG   0.0000
  14 H            1.1925     0.0377     1.1925 H            1    LIG   0.0000
  15 H            0.0377     1.1925     1.1925 H            1    LIG   0.0000
  16 H            1.1925     1.1925     0.0377 H            1    LIG   0.0000
  17 H            2.1703     7.7419     2.1046 H            1    LIG   0.0000
  18 H            0.7966     9.1204     0.7089 H            1    LIG   0.0000
  19 H           -0.7393     8.0744    -0.8114 H            1    LIG   0.0000
  20 H           -0.8824     5.6991    -0.9120 H            1    LIG   0.0000
@<TRIPOS>BOND
   1        1        2 1
   2        2        3 1
   3        3        4 1
   4        4        5 1
   5        5        6 ar
   6        6        7 ar
   7        7        8 ar
   8        8        9 ar
   9        9       10 ar
  10       10        5 ar
  11       10       11 1
  12       11        3 2
  13        4       12 1
  14       11       13 1
  15        1       14 1
  16        1       15 1
  17        1       16 1
  18        6       17 1
  19        7       18 1
  20        8       19 1
  21        9       20 1

@<TRIPOS>MOLECULE

  20   21
SMALL
USER_CHARGES
@<TRIPOS>ATOM
   1 C1           1.0000     1.0000     1.0000 C.3          1    LIG   0.0000
   2 S2           2.0450     2.0450     2.0450 S.3          1    LIG   0.0000
   3 C3           1.5712     3.6497     1.5712 C.2          1    LIG   0.0000
   4 C4           2.3817     4.8129     1.5952 C.ar         1    LIG  -1.0000
   5 C5           1.6042     5.8921     1.0950 C.ar         1    LIG   0.0000
   6 C6           1.8588     7.2435     0.8774 C.ar         1    LIG   0.0000
   7 C7           0.8638     8.0841     0.3915 C.ar         1    LIG   0.0000
   8 C8          -0.3919     7.5482     0.1261 C.ar         1    LIG   0.0000
   9 C9          -0.6320     6.1963     0.3487 C.ar         1    LIG   0.0000
  10 C10          0.3659     5.3564     0.8355 C.ar         1    LIG   0.0000
  11 N11          0.3971     4.0259     1.1361 N.2          1    LIG   1.0000
  12 H            2.6708     5.0072     2.5326 H            1    LIG   0.0000
  13 H           -0.3853     3.4114     1.0355 H            1    LIG   0.0000
  14 H            1.1925     0.0377     1.1925 H            1    LIG   0.0000
  15 H            0.0377     1.1925     1.1925 H            1    LIG   0.0000
  16 H            1.1925     1.1925     0.0377 H            1    LIG   0.0000
  17 H            2.7671     7.6134     1.0726 H            1    LIG   0.0000
  18 H            1.0472     9.0548     0.2359 H            1    LIG   0.0000
  19 H           -1.1220     8.1346    -0.2247 H            1    LIG   0.0000
  20 H           -1.5384     5.8206     0.1554 H            1    LIG   0.0000
@<TRIPOS>BOND
   1        1        2 1
   2        2        3 1
   3        3        4 1
   4        4        5 1
   5        5        6 ar
   6        6        7 ar
   7        7        8 ar
   8        8        9 ar
   9        9       10 ar
  10       10        5 ar
  11       10       11 1
  12       11        3 2
  13        4       12 1
  14       11       13 1
  15        1       14 1
  16        1       15 1
  17        1       16 1
  18        6       17 1
  19        7       18 1
  20        8       19 1
  21        9       20 1

@<TRIPOS>MOLECULE

  20   21
SMALL
USER_CHARGES
@<TRIPOS>ATOM
   1 C1           1.0000     1.0000     1.0000 C.3          1    LIG   0.0000
   2 S2           2.0450     2.0450     2.0450 S.3          1    LIG   0.0000
   3 C3           1.5712     3.6497     1.5712 C.2          1    LIG   0.0000
   4 C4           1.5675     4.8072     2.3902 C.ar         1    LIG  -1.0000
   5 C5           1.1407     5.9015     1.5903 C.ar         1    LIG   0.0000
   6 C6           0.9545     7.2593     1.8352 C.ar         1    LIG   0.0000
   7 C7           0.4863     8.1036     0.8349 C.ar         1    LIG   0.0000
   8 C8           0.2080     7.5650    -0.4169 C.ar         1    LIG   0.0000
   9 C9           0.3983     6.2065    -0.6471 C.ar         1    LIG   0.0000
  10 C10          0.8672     5.3629     0.3563 C.ar         1    LIG   0.0000
  11 N11          1.1361     4.0259     0.3971 N.2          1    LIG   1.0000
  12 H            0.9382     4.6799     3.1568 H            1    LIG   0.0000
  13 H            1.0147     3.4071    -0.3790 H            1    LIG   0.0000
  14 H            1.1925     0.0377     1.1925 H            1    LIG   0.0000
  15 H            0.0377     1.1925     1.1925 H            1    LIG   0.0000
  16 H            1.1925     1.1925     0.0377 H            1    LIG   0.0000
  17 H            1.1598     7.6313     2.7405 H            1    LIG   0.0000
  18 H            0.3523     9.0787     1.0117 H            1    LIG   0.0000
  19 H           -0.1290     8.1543    -1.1512 H            1    LIG   0.0000
  20 H            0.1946     5.8286    -1.5503 H            1    LIG   0.0000
@<TRIPOS>BOND
   1        1        2 1
   2        2        3 1
   3        3        4 1
   4        4        5 1
   5        5        6 ar
   6        6        7 ar
   7        7        8 ar
   8        8        9 ar
   9        9       10 ar
  10       10        5 ar
  11       10       11 1
  12       11        3 2
  13        4       12 1
  14       11       13 1
  15        1       14 1
  16        1       15 1
  17        1       16 1
  18        6       17 1
  19        7       18 1
  20        8       19 1
  21        9       20 1

@<TRIPOS>MOLECULE

  20   21
SMALL
USER_CHARGES
@<TRIPOS>ATOM
   1 C1           1.0000     1.0000     1.0000 C.3          1    LIG   0.0000
   2 S2           2.0450     2.0450     2.0450 S.3          1    LIG   0.0000
   3 C3           1.5712     3.6497     1.5712 C.2          1    LIG   0.0000
   4 C4           0.5265     4.4246     2.1356 C.ar         1    LIG  -1.0000
   5 C5           0.5110     5.6800     1.4697 C.ar         1    LIG   0.0000
   6 C6          -0.2668     6.8279     1.5953 C.ar         1    LIG   0.0000
   7 C7          -0.0613     7.9196     0.7595 C.ar         1    LIG   0.0000
   8 C8           0.9378     7.8431    -0.2050 C.ar         1    LIG   0.0000
   9 C9           1.7069     6.6896    -0.3192 C.ar         1    LIG   0.0000
  10 C10          1.4992     5.5975     0.5188 C.ar         1    LIG   0.0000
  11 N11          2.0961     4.3747     0.6182 N.2          1    LIG   1.0000
  12 H           -0.3497     3.9601     2.0071 H            1    LIG   0.0000
  13 H            2.8461     4.0691     0.0316 H            1    LIG   0.0000
  14 H            1.1925     0.0377     1.1925 H            1    LIG   0.0000
  15 H            0.0377     1.1925     1.1925 H            1    LIG   0.0000
  16 H            1.1925     1.1925     0.0377 H            1    LIG   0.0000
  17 H           -0.9809     6.8675     2.2942 H            1    LIG   0.0000
  18 H           -0.6207     8.7436     0.8500 H            1    LIG   0.0000
  19 H            1.1033     8.6170    -0.8162 H            1    LIG   0.0000
  20 H            2.4224     6.6441    -1.0164 H            1    LIG   0.0000
@<TRIPOS>BOND
   1        1        2 1
   2        2        3 1
   3        3        4 1
   4        4        5 1
   5        5        6 ar
   6        6        7 ar
   7        7        8 ar
   8        8        9 ar
   9        9       10 ar
  10       10        5 ar
  11       10       11 1
  12       11        3 2
  13        4       12 1
  14       11       13 1
  15        1       14 1
  16        1       15 1
  17        1       16 1
  18        6       17 1
  19        7       18 1
  20        8       19 1
  21        9       20 1

@<TRIPOS>MOLECULE

  20   21
SMALL
USER_CHARGES
@<TRIPOS>ATOM
   1 C1           1.0000     1.0000     1.0000 C.3          1    LIG   0.0000
   2 S2           2.0450     2.0450     2.0450 S.3          1    LIG   0.0000
   3 C3           1.5712     3.6497     1.5712 C.2          1    LIG   0.0000
   4 C4           1.0016     4.6446     2.4056 C.ar         1    LIG  -1.0000
   5 C5           0.8028     5.8093     1.6159 C.ar         1    LIG   0.0000
   6 C6           0.2985     7.0794     1.8820 C.ar         1    LIG   0.0000
   7 C7           0.1965     8.0288     0.8716 C.ar         1    LIG   0.0000
   8 C8           0.6092     7.6851    -0.4113 C.ar         1    LIG   0.0000
   9 C9           1.1108     6.4123    -0.6626 C.ar         1    LIG   0.0000
  10 C10          1.2118     5.4630     0.3508 C.ar         1    LIG   0.0000
  11 N11          1.6561     4.1733     0.3762 N.2          1    LIG   1.0000
  12 H            0.1259     4.3251     2.7675 H            1    LIG   0.0000
  13 H            2.0053     3.6863    -0.4243 H            1    LIG   0.0000
  14 H            1.1925     0.0377     1.1925 H            1    LIG   0.0000
  15 H            0.0377     1.1925     1.1925 H            1    LIG   0.0000
  16 H            1.1925     1.1925     0.0377 H            1    LIG   0.0000
  17 H            0.0064     7.3112     2.8099 H            1    LIG   0.0000
  18 H           -0.1664     8.9407     1.0634 H            1    LIG   0.0000
  19 H            0.5454     8.3529    -1.1529 H            1    LIG   0.0000
  20 H            1.4043     6.1745    -1.5885 H            1    LIG   0.0000
@<TRIPOS>BOND
   1        1        2 1
   2        2        3 1
   3        3        4 1
   4        4        5 1
   5        5        6 ar
   6        6        7 ar
   7        7        8 ar
   8        8        9 ar
   9        9       10 ar
  10       10        5 ar
  11       10       11 1
  12       11        3 2
  13        4       12 1
  14       11       13 1
  15        1       14 1
  16        1       15 1
  17        1       16 1
  18        6       17 1
  19        7       18 1
  20        8       19 1
  21        9       20 1

@<TRIPOS>MOLECULE

  20   21
SMALL
USER_CHARGES
@<TRIPOS>ATOM
   1 C1           1.0000     1.0000     1.0000 C.3          1    LIG   0.0000
   2 S2           2.0450     2.0450     2.0450 S.3          1    LIG   0.0000
   3 C3           1.5712     3.6497     1.5712 C.2          1    LIG   0.0000
   4 C4           0.2696     4.2062     1.6527 C.ar         1    LIG  -1.0000
   5 C5           0.3433     5.5481     1.1908 C.ar         1    LIG   0.0000
   6 C6          -0.5898     6.5721     1.0519 C.ar         1    LIG   0.0000
   7 C7          -0.2180     7.8052     0.5286 C.ar         1    LIG   0.0000
   8 C8           1.1057     7.9965     0.1468 C.ar         1    LIG   0.0000
   9 C9           2.0269     6.9643     0.2909 C.ar         1    LIG   0.0000
  10 C10          1.6523     5.7302     0.8151 C.ar         1    LIG   0.0000
  11 N11          2.3380     4.5760     1.0581 N.2          1    LIG   1.0000
  12 H           -0.3610     3.6829     1.0795 H            1    LIG   0.0000
  13 H            3.3118     4.4531     0.8665 H            1    LIG   0.0000
  14 H            1.1925     0.0377     1.1925 H            1    LIG   0.0000
  15 H            0.0377     1.1925     1.1925 H            1    LIG   0.0000
  16 H            1.1925     1.1925     0.0377 H            1    LIG   0.0000
  17 H           -1.5375     6.4189     1.3316 H            1    LIG   0.0000
  18 H           -0.8888     8.5400     0.4287 H            1    LIG   0.0000
  19 H            1.3950     8.8759    -0.2312 H            1    LIG   0.0000
  20 H            2.9761     7.1115     0.0128 H            1    LIG   0.0000
@<TRIPOS>BOND
   1        1        2 1
   2        2        3 1
   3        3        4 1
   4        4        5 1
   5        5        6 ar
   6        6        7 ar
   7        7        8 ar
   8        8        9 ar
   9        9       10 ar
  10       10        5 ar
  11       10       11 1
  12       11        3 2
  13        4       12 1
  14       11       13 1
  15        1       14 1
  16        1       15 1
  17        1       16 1
  18        6       17 1
  19        7       18 1
  20        8       19 1
  21        9       20 1

@<TRIPOS>MOLECULE

  20   21
SMALL
USER_CHARGES
@<TRIPOS>ATOM
   1 C1           1.0000     1.0000     1.0000 C.3          1    LIG   0.0000
   2 S2           2.0450     2.0450     2.0450 S.3          1    LIG   0.0000
   3 C3           1.5712     3.6497     1.5712 C.2          1    LIG   0.0000
   4 C4           2.1549     4.4360     0.5457 C.ar         1    LIG  -1.0000
   5 C5           1.4379     5.6612     0.4792 C.ar         1    LIG   0.0000
   6 C6           1.5417     6.7962    -0.3204 C.ar         1    LIG   0.0000
   7 C7           0.6936     7.8807    -0.1272 C.ar         1    LIG   0.0000
   8 C8          -0.2619     7.8095     0.8809 C.ar         1    LIG   0.0000
   9 C9          -0.3537     6.6693     1.6724 C.ar         1    LIG   0.0000
  10 C10          0.4967     5.5845     1.4772 C.ar         1    LIG   0.0000
  11 N11          0.6182     4.3747     2.0961 N.2          1    LIG   1.0000
  12 H            3.1155     4.6147     0.7587 H            1    LIG   0.0000
  13 H            0.0460     4.0777     2.8606 H            1    LIG   0.0000
  14 H            1.1925     0.0377     1.1925 H            1    LIG   0.0000
  15 H            0.0377     1.1925     1.1925 H            1    LIG   0.0000
  16 H            1.1925     1.1925     0.0377 H            1    LIG   0.0000
  17 H            2.2336     6.8317    -1.0415 H            1    LIG   0.0000
  18 H            0.7690     8.6958    -0.7017 H            1    LIG   0.0000
  19 H           -0.8827     8.5777     1.0367 H            1    LIG   0.0000
  20 H           -1.0436     6.6280     2.3951 H            1    LIG   0.0000
@<TRIPOS>BOND
   1        1        2 1
   2        2        3 1
   3        3        4 1
   4        4        5 1
   5        5        6 ar
   6        6        7 ar
   7        7        8 ar
   8        8        9 ar
   9        9       10 ar
  10       10        5 ar
  11       10       11 1
  12       11        3 2
  13        4       12 1
  14       11       13 1
  15        1       14 1
  16        1       15 1
  17        1       16 1
  18        6       17 1
  19        7       18 1
  20        8       19 1
  21        9       20 1

@<TRIPOS>MOLECULE

  20   21
SMALL
USER_CHARGES
@<TRIPOS>ATOM
   1 C1           1.0000     1.0000     1.0000 C.3          1    LIG   0.0000
   2 S2           2.0450     2.0450     2.0450 S.3          1    LIG   0.0000
   3 C3           1.5712     3.6497     1.5712 C.2          1    LIG   0.0000
   4 C4           1.6798     4.2160     0.2758 C.ar         1    LIG  -1.0000
   5 C5           1.1461     5.5319     0.3330 C.ar         1    LIG   0.0000
   6 C6           0.9764     6.5446    -0.6071 C.ar         1    LIG   0.0000
   7 C7           0.4358     7.7715    -0.2393 C.ar         1    LIG   0.0000
   8 C8           0.0667     7.9674     1.0872 C.ar         1    LIG   0.0000
   9 C9           0.2424     6.9467     2.0157 C.ar         1    LIG   0.0000
  10 C10          0.7841     5.7189     1.6451 C.ar         1    LIG   0.0000
  11 N11          1.0581     4.5760     2.3380 N.2          1    LIG   1.0000
  12 H            2.6399     4.2497    -0.0017 H            1    LIG   0.0000
  13 H            0.8868     4.4605     3.3164 H            1    LIG   0.0000
  14 H            1.1925     0.0377     1.1925 H            1    LIG   0.0000
  15 H            0.0377     1.1925     1.1925 H            1    LIG   0.0000
  16 H            1.1925     1.1925     0.0377 H            1    LIG   0.0000
  17 H            1.2463     6.3879    -1.5572 H            1    LIG   0.0000
  18 H            0.3147     8.4986    -0.9151 H            1    LIG   0.0000
  19 H           -0.3249     8.8419     1.3734 H            1    LIG   0.0000
  20 H           -0.0255     7.0976     2.9673 H            1    LIG   0.0000
@<TRIPOS>BOND
   1        1        2 1
   2        2        3 1
   3        3        4 1
   4        4        5 1
   5        5        6 ar
   6        6        7 ar
   7        7        8 ar
   8        8        9 ar
   9        9       10 ar
  10       10        5 ar
  11       10       11 1
  12       11        3 2
  13        4       12 1
  14       11       13 1
  15        1       14 1
  16        1       15 1
  17        1       16 1
  18        6       17 1
  19        7       18 1
  20        8       19 1
  21        9       20 1

@<TRIPOS>MOLECULE

  20   21
SMALL
USER_CHARGES
@<TRIPOS>ATOM
   1 C1           1.0000     1.0000     1.0000 C.3          1    LIG   0.0000
   2 S2           2.0450     2.0450     2.0450 S.3          1    LIG   0.0000
   3 C3           1.5712     3.6497     1.5712 C.2          1    LIG   0.0000
   4 C4           2.4118     4.6545     1.0287 C.ar         1    LIG  -1.0000
   5 C5           1.6056     5.7931     0.7582 C.ar         1    LIG   0.0000
   6 C6           1.8646     7.0520     0.2229 C.ar         1    LIG   0.0000
   7 C7           0.8502     7.9951     0.1037 C.ar         1    LIG   0.0000
   8 C8          -0.4298     7.6560     0.5291 C.ar         1    LIG   0.0000
   9 C9          -0.6738     6.3946     1.0622 C.ar         1    LIG   0.0000
  10 C10          0.3437     5.4518     1.1808 C.ar         1    LIG   0.0000
  11 N11          0.3762     4.1733     1.6561 N.2          1    LIG   1.0000
  12 H            3.1268     4.8919     1.6863 H            1    LIG   0.0000
  13 H           -0.4196     3.6936     2.0257 H            1    LIG   0.0000
  14 H            1.1925     0.0377     1.1925 H            1    LIG   0.0000
  15 H            0.0377     1.1925     1.1925 H            1    LIG   0.0000
  16 H            1.1925     1.1925     0.0377 H            1    LIG   0.0000
  17 H            2.7902     7.2803    -0.0789 H            1    LIG   0.0000
  18 H            1.0371     8.8993    -0.2804 H            1    LIG   0.0000
  19 H           -1.1745     8.3189     0.4518 H            1    LIG   0.0000
  20 H           -1.5973     6.1606     1.3659 H            1    LIG   0.0000
@<TRIPOS>BOND
   1        1        2 1
   2        2        3 1
   3        3        4 1
   4        4        5 1
   5        5        6 ar
   6        6        7 ar
   7        7        8 ar
   8        8        9 ar
   9        9       10 ar
  10       10        5 ar
  11       10       11 1
  12       11        3 2
  13        4       12 1
  14       11       13 1
  15        1       14 1
  16        1       15 1
  17        1       16 1
  18        6       17 1
  19        7       18 1
  20        8       19 1
  21        9       20 1

