@<TRIPOS>MOLECULE
*****
 20 21 0 0 0
SMALL
USER_CHARGES

@<TRIPOS>ATOM
      1 C1          1.0000    1.0000    1.0000 C.3     1  LIG1        0.0000
      2 S2          2.0450    2.0450    2.0450 S.3     1  LIG1        0.0000
      3 C3          1.5712    3.6497    1.5712 C.2     1  LIG1        0.0000
      4 C4          0.2696    4.2062    1.6527 C.ar    1  LIG1       -1.0000
      5 C5          0.3433    5.5481    1.1908 C.ar    1  LIG1        0.0000
      6 C6         -0.5898    6.5721    1.0519 C.ar    1  LIG1        0.0000
      7 C7         -0.2180    7.8052    0.5286 C.ar    1  LIG1        0.0000
      8 C8          1.1057    7.9965    0.1468 C.ar    1  LIG1        0.0000
      9 C9          2.0269    6.9643    0.2909 C.ar    1  LIG1        0.0000
     10 C10         1.6523    5.7302    0.8151 C.ar    1  LIG1        0.0000
     11 N11         2.3380    4.5760    1.0581 N.2     1  LIG1        1.0000
     12 H          -0.3610    3.6829    1.0795 H       1  LIG1        0.0000
     13 H           3.3118    4.4531    0.8665 H       1  LIG1        0.0000
     14 H           1.1925    0.0377    1.1925 H       1  LIG1        0.0000
     15 H           0.0377    1.1925    1.1925 H       1  LIG1        0.0000
     16 H           1.1925    1.1925    0.0377 H       1  LIG1        0.0000
     17 H          -1.5375    6.4189    1.3316 H       1  LIG1        0.0000
     18 H          -0.8888    8.5400    0.4287 H       1  LIG1        0.0000
     19 H           1.3950    8.8759   -0.2312 H       1  LIG1        0.0000
     20 H           2.9761    7.1115    0.0128 H       1  LIG1        0.0000
@<TRIPOS>BOND
     1     1     2    1
     2     2     3    1
     3     3     4    1
     4     4     5    1
     5     5     6   ar
     6     6     7   ar
     7     7     8   ar
     8     8     9   ar
     9     9    10   ar
    10    10     5   ar
    11    10    11    1
    12    11     3    2
    13     4    12    1
    14    11    13    1
    15     1    14    1
    16     1    15    1
    17     1    16    1
    18     6    17    1
    19     7    18    1
    20     8    19    1
    21     9    20    1
