@<TRIPOS>MOLECULE
*****
 20 21 0 0 0
SMALL
USER_CHARGES

@<TRIPOS>ATOM
      1 C1          1.0000    1.0000    1.0000 C.3     1  LIG1        0.0000
      2 S2          2.0450    2.0450    2.0450 S.3     1  LIG1        0.0000
      3 C3          1.5712    3.6497    1.5712 C.2     1  LIG1        0.0000
      4 C4          1.0016    4.6446    2.4056 C.ar    1  LIG1       -1.0000
      5 C5          0.8028    5.8093    1.6159 C.ar    1  LIG1        0.0000
      6 C6          0.2985    7.0794    1.8820 C.ar    1  LIG1        0.0000
      7 C7          0.1965    8.0288    0.8716 C.ar    1  LIG1        0.0000
      8 C8          0.6092    7.6851   -0.4113 C.ar    1  LIG1        0.0000
      9 C9          1.1108    6.4123   -0.6626 C.ar    1  LIG1        0.0000
     10 C10         1.2118    5.4630    0.3508 C.ar    1  LIG1        0.0000
     11 N11         1.6561    4.1733    0.3762 N.2     1  LIG1        1.0000
     12 H           0.1259    4.3251    2.7675 H       1  LIG1        0.0000
     13 H           2.0053    3.6863   -0.4243 H       1  LIG1        0.0000
     14 H           1.1925    0.0377    1.1925 H       1  LIG1        0.0000
     15 H           0.0377    1.1925    1.1925 H       1  LIG1        0.0000
     16 H           1.1925    1.1925    0.0377 H       1  LIG1        0.0000
     17 H           0.0064    7.3112    2.8099 H       1  LIG1        0.0000
     18 H          -0.1664    8.9407    1.0634 H       1  LIG1        0.0000
     19 H           0.5454    8.3529   -1.1529 H       1  LIG1        0.0000
     20 H           1.4043    6.1745   -1.5885 H       1  LIG1        0.0000
@<TRIPOS>BOND
     1     1     2    1
     2     2     3    1
     3     3     4    1
     4     4     5    1
     5     5     6   ar
     6     6     7   ar
     7     7     8   ar
     8     8     9   ar
     9     9    10   ar
    10    10     5   ar
    11    10    11    1
    12    11     3    2
    13     4    12    1
    14    11    13    1
    15     1    14    1
    16     1    15    1
    17     1    16    1
    18     6    17    1
    19     7    18    1
    20     8    19    1
    21     9    20    1
