@<TRIPOS>MOLECULE
*****
 20 21 0 0 0
SMALL
USER_CHARGES

@<TRIPOS>ATOM
      1 C1          1.0000    1.0000    1.0000 C.3     1  LIG1        0.0000
      2 S2          2.0450    2.0450    2.0450 S.3     1  LIG1        0.0000
      3 C3          1.5712    3.6497    1.5712 C.2     1  LIG1        0.0000
      4 C4          1.6798    4.2160    0.2758 C.ar    1  LIG1       -1.0000
      5 C5          1.1461    5.5319    0.3330 C.ar    1  LIG1        0.0000
      6 C6          0.9764    6.5446   -0.6071 C.ar    1  LIG1        0.0000
      7 C7          0.4358    7.7715   -0.2393 C.ar    1  LIG1        0.0000
      8 C8          0.0667    7.9674    1.0872 C.ar    1  LIG1        0.0000
      9 C9          0.2424    6.9467    2.0157 C.ar    1  LIG1        0.0000
     10 C10         0.7841    5.7189    1.6451 C.ar    1  LIG1        0.0000
     11 N11         1.0581    4.5760    2.3380 N.2     1  LIG1        1.0000
     12 H           2.6399    4.2497   -0.0017 H       1  LIG1        0.0000
     13 H           0.8868    4.4605    3.3164 H       1  LIG1        0.0000
     14 H           1.1925    0.0377    1.1925 H       1  LIG1        0.0000
     15 H           0.0377    1.1925    1.1925 H       1  LIG1        0.0000
     16 H           1.1925    1.1925    0.0377 H       1  LIG1        0.0000
     17 H           1.2463    6.3879   -1.5572 H       1  LIG1        0.0000
     18 H           0.3147    8.4986   -0.9151 H       1  LIG1        0.0000
     19 H          -0.3249    8.8419    1.3734 H       1  LIG1        0.0000
     20 H          -0.0255    7.0976    2.9673 H       1  LIG1        0.0000
@<TRIPOS>BOND
     1     1     2    1
     2     2     3    1
     3     3     4    1
     4     4     5    1
     5     5     6   ar
     6     6     7   ar
     7     7     8   ar
     8     8     9   ar
     9     9    10   ar
    10    10     5   ar
    11    10    11    1
    12    11     3    2
    13     4    12    1
    14    11    13    1
    15     1    14    1
    16     1    15    1
    17     1    16    1
    18     6    17    1
    19     7    18    1
    20     8    19    1
    21     9    20    1
