@<TRIPOS>MOLECULE
*****
 20 21 0 0 0
SMALL
USER_CHARGES

@<TRIPOS>ATOM
      1 C1          1.0000    1.0000    1.0000 C.3     1  LIG1        0.0000
      2 S2          2.0450    2.0450    2.0450 S.3     1  LIG1        0.0000
      3 C3          1.5712    3.6497    1.5712 C.2     1  LIG1        0.0000
      4 C4          2.1549    4.4360    0.5457 C.ar    1  LIG1       -1.0000
      5 C5          1.4379    5.6612    0.4792 C.ar    1  LIG1        0.0000
      6 C6          1.5417    6.7962   -0.3204 C.ar    1  LIG1        0.0000
      7 C7          0.6936    7.8807   -0.1272 C.ar    1  LIG1        0.0000
      8 C8         -0.2619    7.8095    0.8809 C.ar    1  LIG1        0.0000
      9 C9         -0.3537    6.6693    1.6724 C.ar    1  LIG1        0.0000
     10 C10         0.4967    5.5845    1.4772 C.ar    1  LIG1        0.0000
     11 N11         0.6182    4.3747    2.0961 N.2     1  LIG1        1.0000
     12 H           3.1155    4.6147    0.7587 H       1  LIG1        0.0000
     13 H           0.0460    4.0777    2.8606 H       1  LIG1        0.0000
     14 H           1.1925    0.0377    1.1925 H       1  LIG1        0.0000
     15 H           0.0377    1.1925    1.1925 H       1  LIG1        0.0000
     16 H           1.1925    1.1925    0.0377 H       1  LIG1        0.0000
     17 H           2.2336    6.8317   -1.0415 H       1  LIG1        0.0000
     18 H           0.7690    8.6958   -0.7017 H       1  LIG1        0.0000
     19 H          -0.8827    8.5777    1.0367 H       1  LIG1        0.0000
     20 H          -1.0436    6.6280    2.3951 H       1  LIG1        0.0000
@<TRIPOS>BOND
     1     1     2    1
     2     2     3    1
     3     3     4    1
     4     4     5    1
     5     5     6   ar
     6     6     7   ar
     7     7     8   ar
     8     8     9   ar
     9     9    10   ar
    10    10     5   ar
    11    10    11    1
    12    11     3    2
    13     4    12    1
    14    11    13    1
    15     1    14    1
    16     1    15    1
    17     1    16    1
    18     6    17    1
    19     7    18    1
    20     8    19    1
    21     9    20    1
