@<TRIPOS>MOLECULE
*****
 20 21 0 0 0
SMALL
USER_CHARGES

@<TRIPOS>ATOM
      1 C1          1.0000    1.0000    1.0000 C.3     1  LIG1        0.0000
      2 S2          2.0450    2.0450    2.0450 S.3     1  LIG1        0.0000
      3 C3          1.5712    3.6497    1.5712 C.2     1  LIG1        0.0000
      4 C4          2.0727    4.8688    2.0935 C.ar    1  LIG1       -1.0000
      5 C5          1.4340    5.9318    1.3996 C.ar    1  LIG1        0.0000
      6 C6          1.5256    7.3194    1.4675 C.ar    1  LIG1        0.0000
      7 C7          0.7306    8.1238    0.6591 C.ar    1  LIG1        0.0000
      8 C8         -0.1585    7.5149   -0.2202 C.ar    1  LIG1        0.0000
      9 C9         -0.2396    6.1274   -0.2770 C.ar    1  LIG1        0.0000
     10 C10         0.5575    5.3238    0.5337 C.ar    1  LIG1        0.0000
     11 N11         0.6752    3.9720    0.6752 N.2     1  LIG1        1.0000
     12 H           1.8697    4.9296    3.0708 H       1  LIG1        0.0000
     13 H           0.1397    3.3065    0.1553 H       1  LIG1        0.0000
     14 H           1.1925    0.0377    1.1925 H       1  LIG1        0.0000
     15 H           0.0377    1.1925    1.1925 H       1  LIG1        0.0000
     16 H           1.1925    1.1925    0.0377 H       1  LIG1        0.0000
     17 H           2.1703    7.7419    2.1046 H       1  LIG1        0.0000
     18 H           0.7966    9.1204    0.7089 H       1  LIG1        0.0000
     19 H          -0.7393    8.0744   -0.8114 H       1  LIG1        0.0000
     20 H          -0.8824    5.6991   -0.9120 H       1  LIG1        0.0000
@<TRIPOS>BOND
     1     1     2    1
     2     2     3    1
     3     3     4    1
     4     4     5    1
     5     5     6   ar
     6     6     7   ar
     7     7     8   ar
     8     8     9   ar
     9     9    10   ar
    10    10     5   ar
    11    10    11    1
    12    11     3    2
    13     4    12    1
    14    11    13    1
    15     1    14    1
    16     1    15    1
    17     1    16    1
    18     6    17    1
    19     7    18    1
    20     8    19    1
    21     9    20    1
