@<TRIPOS>MOLECULE
*****
 20 21 0 0 0
SMALL
USER_CHARGES

@<TRIPOS>ATOM
      1 C1          1.0000    1.0000    1.0000 C.3     1  LIG1        0.0000
      2 S2          2.0450    2.0450    2.0450 S.3     1  LIG1        0.0000
      3 C3          1.5712    3.6497    1.5712 C.2     1  LIG1        0.0000
      4 C4          2.3817    4.8129    1.5952 C.ar    1  LIG1       -1.0000
      5 C5          1.6042    5.8921    1.0950 C.ar    1  LIG1        0.0000
      6 C6          1.8588    7.2435    0.8774 C.ar    1  LIG1        0.0000
      7 C7          0.8638    8.0841    0.3915 C.ar    1  LIG1        0.0000
      8 C8         -0.3919    7.5482    0.1261 C.ar    1  LIG1        0.0000
      9 C9         -0.6320    6.1963    0.3487 C.ar    1  LIG1        0.0000
     10 C10         0.3659    5.3564    0.8355 C.ar    1  LIG1        0.0000
     11 N11         0.3971    4.0259    1.1361 N.2     1  LIG1        1.0000
     12 H           2.6708    5.0072    2.5326 H       1  LIG1        0.0000
     13 H          -0.3853    3.4114    1.0355 H       1  LIG1        0.0000
     14 H           1.1925    0.0377    1.1925 H       1  LIG1        0.0000
     15 H           0.0377    1.1925    1.1925 H       1  LIG1        0.0000
     16 H           1.1925    1.1925    0.0377 H       1  LIG1        0.0000
     17 H           2.7671    7.6134    1.0726 H       1  LIG1        0.0000
     18 H           1.0472    9.0548    0.2359 H       1  LIG1        0.0000
     19 H          -1.1220    8.1346   -0.2247 H       1  LIG1        0.0000
     20 H          -1.5384    5.8206    0.1554 H       1  LIG1        0.0000
@<TRIPOS>BOND
     1     1     2    1
     2     2     3    1
     3     3     4    1
     4     4     5    1
     5     5     6   ar
     6     6     7   ar
     7     7     8   ar
     8     8     9   ar
     9     9    10   ar
    10    10     5   ar
    11    10    11    1
    12    11     3    2
    13     4    12    1
    14    11    13    1
    15     1    14    1
    16     1    15    1
    17     1    16    1
    18     6    17    1
    19     7    18    1
    20     8    19    1
    21     9    20    1
