@<TRIPOS>MOLECULE
*****
 20 21 0 0 0
SMALL
USER_CHARGES

@<TRIPOS>ATOM
      1 C1          1.0000    1.0000    1.0000 C.3     1  LIG1        0.0000
      2 S2          2.0450    2.0450    2.0450 S.3     1  LIG1        0.0000
      3 C3          1.5712    3.6497    1.5712 C.2     1  LIG1        0.0000
      4 C4          0.5265    4.4246    2.1356 C.ar    1  LIG1       -1.0000
      5 C5          0.5110    5.6800    1.4697 C.ar    1  LIG1        0.0000
      6 C6         -0.2668    6.8279    1.5953 C.ar    1  LIG1        0.0000
      7 C7         -0.0613    7.9196    0.7595 C.ar    1  LIG1        0.0000
      8 C8          0.9378    7.8431   -0.2050 C.ar    1  LIG1        0.0000
      9 C9          1.7069    6.6896   -0.3192 C.ar    1  LIG1        0.0000
     10 C10         1.4992    5.5975    0.5188 C.ar    1  LIG1        0.0000
     11 N11         2.0961    4.3747    0.6182 N.2     1  LIG1        1.0000
     12 H          -0.3497    3.9601    2.0071 H       1  LIG1        0.0000
     13 H           2.8461    4.0691    0.0316 H       1  LIG1        0.0000
     14 H           1.1925    0.0377    1.1925 H       1  LIG1        0.0000
     15 H           0.0377    1.1925    1.1925 H       1  LIG1        0.0000
     16 H           1.1925    1.1925    0.0377 H       1  LIG1        0.0000
     17 H          -0.9809    6.8675    2.2942 H       1  LIG1        0.0000
     18 H          -0.6207    8.7436    0.8500 H       1  LIG1        0.0000
     19 H           1.1033    8.6170   -0.8162 H       1  LIG1        0.0000
     20 H           2.4224    6.6441   -1.0164 H       1  LIG1        0.0000
@<TRIPOS>BOND
     1     1     2    1
     2     2     3    1
     3     3     4    1
     4     4     5    1
     5     5     6   ar
     6     6     7   ar
     7     7     8   ar
     8     8     9   ar
     9     9    10   ar
    10    10     5   ar
    11    10    11    1
    12    11     3    2
    13     4    12    1
    14    11    13    1
    15     1    14    1
    16     1    15    1
    17     1    16    1
    18     6    17    1
    19     7    18    1
    20     8    19    1
    21     9    20    1
