@<TRIPOS>MOLECULE
*****
 20 21 0 0 0
SMALL
USER_CHARGES

@<TRIPOS>ATOM
      1 C1          1.0000    1.0000    1.0000 C.3     1  LIG1        0.0000
      2 S2          2.0450    2.0450    2.0450 S.3     1  LIG1        0.0000
      3 C3          1.5712    3.6497    1.5712 C.2     1  LIG1        0.0000
      4 C4          1.1138    4.0535    0.2912 C.ar    1  LIG1       -1.0000
      5 C5          0.8082    5.4397    0.3587 C.ar    1  LIG1        0.0000
      6 C6          0.3203    6.3647   -0.5604 C.ar    1  LIG1        0.0000
      7 C7          0.1460    7.6968   -0.2026 C.ar    1  LIG1        0.0000
      8 C8          0.4680    8.0875    1.0928 C.ar    1  LIG1        0.0000
      9 C9          0.9548    7.1525    2.0003 C.ar    1  LIG1        0.0000
     10 C10         1.1288    5.8191    1.6397 C.ar    1  LIG1        0.0000
     11 N11         1.5782    4.7234    2.3171 N.2     1  LIG1        1.0000
     12 H           1.8275    3.8949   -0.3910 H       1  LIG1        0.0000
     13 H           1.8774    4.7397    3.2712 H       1  LIG1        0.0000
     14 H           1.1925    0.0377    1.1925 H       1  LIG1        0.0000
     15 H           0.0377    1.1925    1.1925 H       1  LIG1        0.0000
     16 H           1.1925    1.1925    0.0377 H       1  LIG1        0.0000
     17 H           0.0929    6.0678   -1.4878 H       1  LIG1        0.0000
     18 H          -0.2040    8.3607   -0.8634 H       1  LIG1        0.0000
     19 H           0.3495    9.0405    1.3717 H       1  LIG1        0.0000
     20 H           1.1841    7.4435    2.9291 H       1  LIG1        0.0000
@<TRIPOS>BOND
     1     1     2    1
     2     2     3    1
     3     3     4    1
     4     4     5    1
     5     5     6   ar
     6     6     7   ar
     7     7     8   ar
     8     8     9   ar
     9     9    10   ar
    10    10     5   ar
    11    10    11    1
    12    11     3    2
    13     4    12    1
    14    11    13    1
    15     1    14    1
    16     1    15    1
    17     1    16    1
    18     6    17    1
    19     7    18    1
    20     8    19    1
    21     9    20    1
