@<TRIPOS>MOLECULE
*****
 20 21 0 0 0
SMALL
USER_CHARGES

@<TRIPOS>ATOM
      1 C1          1.0000    1.0000    1.0000 C.3     1  LIG1        0.0000
      2 S2          2.0450    2.0450    2.0450 S.3     1  LIG1        0.0000
      3 C3          1.5712    3.6497    1.5712 C.2     1  LIG1        0.0000
      4 C4          2.4118    4.6545    1.0287 C.ar    1  LIG1       -1.0000
      5 C5          1.6056    5.7931    0.7582 C.ar    1  LIG1        0.0000
      6 C6          1.8646    7.0520    0.2229 C.ar    1  LIG1        0.0000
      7 C7          0.8502    7.9951    0.1037 C.ar    1  LIG1        0.0000
      8 C8         -0.4298    7.6560    0.5291 C.ar    1  LIG1        0.0000
      9 C9         -0.6738    6.3946    1.0622 C.ar    1  LIG1        0.0000
     10 C10         0.3437    5.4518    1.1808 C.ar    1  LIG1        0.0000
     11 N11         0.3762    4.1733    1.6561 N.2     1  LIG1        1.0000
     12 H           3.1268    4.8919    1.6863 H       1  LIG1        0.0000
     13 H          -0.4196    3.6936    2.0257 H       1  LIG1        0.0000
     14 H           1.1925    0.0377    1.1925 H       1  LIG1        0.0000
     15 H           0.0377    1.1925    1.1925 H       1  LIG1        0.0000
     16 H           1.1925    1.1925    0.0377 H       1  LIG1        0.0000
     17 H           2.7902    7.2803   -0.0789 H       1  LIG1        0.0000
     18 H           1.0371    8.8993   -0.2804 H       1  LIG1        0.0000
     19 H          -1.1745    8.3189    0.4518 H       1  LIG1        0.0000
     20 H          -1.5973    6.1606    1.3659 H       1  LIG1        0.0000
@<TRIPOS>BOND
     1     1     2    1
     2     2     3    1
     3     3     4    1
     4     4     5    1
     5     5     6   ar
     6     6     7   ar
     7     7     8   ar
     8     8     9   ar
     9     9    10   ar
    10    10     5   ar
    11    10    11    1
    12    11     3    2
    13     4    12    1
    14    11    13    1
    15     1    14    1
    16     1    15    1
    17     1    16    1
    18     6    17    1
    19     7    18    1
    20     8    19    1
    21     9    20    1
