@<TRIPOS>MOLECULE
*****
 20 21 0 0 0
SMALL
USER_CHARGES

@<TRIPOS>ATOM
      1 C1          1.0000    1.0000    1.0000 C.3     1  LIG1        0.0000
      2 S2          2.0450    2.0450    2.0450 S.3     1  LIG1        0.0000
      3 C3          1.5712    3.6497    1.5712 C.2     1  LIG1        0.0000
      4 C4          0.2997    4.0478    1.0862 C.ar    1  LIG1       -1.0000
      5 C5          0.3448    5.4490    0.8539 C.ar    1  LIG1        0.0000
      6 C6         -0.5839    6.3806    0.3975 C.ar    1  LIG1        0.0000
      7 C7         -0.2315    7.7162    0.2408 C.ar    1  LIG1        0.0000
      8 C8          1.0678    8.1043    0.5498 C.ar    1  LIG1        0.0000
      9 C9          1.9851    7.1627    1.0045 C.ar    1  LIG1        0.0000
     10 C10         1.6300    5.8256    1.1605 C.ar    1  LIG1        0.0000
     11 N11         2.3171    4.7234    1.5782 N.2     1  LIG1        1.0000
     12 H           0.0950    3.5676    0.2332 H       1  LIG1        0.0000
     13 H           3.2775    4.7354    1.8567 H       1  LIG1        0.0000
     14 H           1.1925    0.0377    1.1925 H       1  LIG1        0.0000
     15 H           0.0377    1.1925    1.1925 H       1  LIG1        0.0000
     16 H           1.1925    1.1925    0.0377 H       1  LIG1        0.0000
     17 H          -1.5144    6.0857    0.1801 H       1  LIG1        0.0000
     18 H          -0.8989    8.3846   -0.0876 H       1  LIG1        0.0000
     19 H           1.3425    9.0601    0.4452 H       1  LIG1        0.0000
     20 H           2.9171    7.4515    1.2233 H       1  LIG1        0.0000
@<TRIPOS>BOND
     1     1     2    1
     2     2     3    1
     3     3     4    1
     4     4     5    1
     5     5     6   ar
     6     6     7   ar
     7     7     8   ar
     8     8     9   ar
     9     9    10   ar
    10    10     5   ar
    11    10    11    1
    12    11     3    2
    13     4    12    1
    14    11    13    1
    15     1    14    1
    16     1    15    1
    17     1    16    1
    18     6    17    1
    19     7    18    1
    20     8    19    1
    21     9    20    1
