@<TRIPOS>MOLECULE
*****
 20 21 0 0 0
SMALL
USER_CHARGES

@<TRIPOS>ATOM
      1 C1          1.0000    1.0000    1.0000 C.3     1  LIG1        0.0000
      2 S2          2.0450    2.0450    2.0450 S.3     1  LIG1        0.0000
      3 C3          1.5712    3.6497    1.5712 C.2     1  LIG1        0.0000
      4 C4          1.5675    4.8072    2.3902 C.ar    1  LIG1       -1.0000
      5 C5          1.1407    5.9015    1.5903 C.ar    1  LIG1        0.0000
      6 C6          0.9545    7.2593    1.8352 C.ar    1  LIG1        0.0000
      7 C7          0.4863    8.1036    0.8349 C.ar    1  LIG1        0.0000
      8 C8          0.2080    7.5650   -0.4169 C.ar    1  LIG1        0.0000
      9 C9          0.3983    6.2065   -0.6471 C.ar    1  LIG1        0.0000
     10 C10         0.8672    5.3629    0.3563 C.ar    1  LIG1        0.0000
     11 N11         1.1361    4.0259    0.3971 N.2     1  LIG1        1.0000
     12 H           0.9382    4.6799    3.1568 H       1  LIG1        0.0000
     13 H           1.0147    3.4071   -0.3790 H       1  LIG1        0.0000
     14 H           1.1925    0.0377    1.1925 H       1  LIG1        0.0000
     15 H           0.0377    1.1925    1.1925 H       1  LIG1        0.0000
     16 H           1.1925    1.1925    0.0377 H       1  LIG1        0.0000
     17 H           1.1598    7.6313    2.7405 H       1  LIG1        0.0000
     18 H           0.3523    9.0787    1.0117 H       1  LIG1        0.0000
     19 H          -0.1290    8.1543   -1.1512 H       1  LIG1        0.0000
     20 H           0.1946    5.8286   -1.5503 H       1  LIG1        0.0000
@<TRIPOS>BOND
     1     1     2    1
     2     2     3    1
     3     3     4    1
     4     4     5    1
     5     5     6   ar
     6     6     7   ar
     7     7     8   ar
     8     8     9   ar
     9     9    10   ar
    10    10     5   ar
    11    10    11    1
    12    11     3    2
    13     4    12    1
    14    11    13    1
    15     1    14    1
    16     1    15    1
    17     1    16    1
    18     6    17    1
    19     7    18    1
    20     8    19    1
    21     9    20    1
