@<TRIPOS>MOLECULE
*****
 20 21 0 0 0
SMALL
USER_CHARGES

@<TRIPOS>ATOM
      1 C1          1.0000    1.0000    1.0000 C.3     1  LIG1        0.0000
      2 S2          2.0450    2.0450    2.0450 S.3     1  LIG1        0.0000
      3 C3          1.5712    3.6497    1.5712 C.2     1  LIG1        0.0000
      4 C4          0.6087    3.9919    0.5878 C.ar    1  LIG1       -1.0000
      5 C5          0.5149    5.4094    0.5493 C.ar    1  LIG1        0.0000
      6 C6         -0.2508    6.3047   -0.1926 C.ar    1  LIG1        0.0000
      7 C7         -0.0983    7.6765   -0.0269 C.ar    1  LIG1        0.0000
      8 C8          0.8344    8.1376    0.8961 C.ar    1  LIG1        0.0000
      9 C9          1.5927    7.2315    1.6301 C.ar    1  LIG1        0.0000
     10 C10         1.4384    5.8581    1.4623 C.ar    1  LIG1        0.0000
     11 N11         2.0390    4.7774    2.0390 N.2     1  LIG1        1.0000
     12 H           0.8960    3.6452   -0.3051 H       1  LIG1        0.0000
     13 H           2.7525    4.8403    2.7369 H       1  LIG1        0.0000
     14 H           1.1925    0.0377    1.1925 H       1  LIG1        0.0000
     15 H           0.0377    1.1925    1.1925 H       1  LIG1        0.0000
     16 H           1.1925    1.1925    0.0377 H       1  LIG1        0.0000
     17 H          -0.9176    5.9572   -0.8519 H       1  LIG1        0.0000
     18 H          -0.6483    8.3189   -0.5606 H       1  LIG1        0.0000
     19 H           0.9598    9.1204    1.0319 H       1  LIG1        0.0000
     20 H           2.2612    7.5730    2.2908 H       1  LIG1        0.0000
@<TRIPOS>BOND
     1     1     2    1
     2     2     3    1
     3     3     4    1
     4     4     5    1
     5     5     6   ar
     6     6     7   ar
     7     7     8   ar
     8     8     9   ar
     9     9    10   ar
    10    10     5   ar
    11    10    11    1
    12    11     3    2
    13     4    12    1
    14    11    13    1
    15     1    14    1
    16     1    15    1
    17     1    16    1
    18     6    17    1
    19     7    18    1
    20     8    19    1
    21     9    20    1
