@<TRIPOS>MOLECULE

  17   17
SMALL
USER_CHARGES
@<TRIPOS>ATOM
   1 C1           0.2400     2.3162     0.9815 C.3          1    LIG   0.0000
   2 C2           1.0000     1.0000     1.0000 C.2          1    LIG   0.0000
   3 O3           0.4000    -0.0391     1.0146 O.2          1    LIG   0.0000
   4 C4           2.4497     1.0000     1.0000 C.ar         1    LIG   0.0000
   5 C5           3.1377     2.2095     0.9850 C.ar         1    LIG   0.0000
   6 C6           4.5288     2.2193     0.9866 C.ar         1    LIG   0.0000
   7 C7           5.2145     1.0093     1.0033 C.ar         1    LIG   0.0000
   8 O8           6.5647     0.9993     1.0062 O.3          1    LIG  -1.0000
   9 C9           4.5232    -0.1975     1.0183 C.ar         1    LIG   0.0000
  10 Br10         5.5030    -1.8949     1.0423 Br           1    LIG   0.0000
  11 C11          3.1326    -0.2116     1.0170 C.ar         1    LIG   0.0000
  12 H            0.8898     3.0762     0.9709 H            1    LIG   0.0000
  13 H           -0.3349     2.3577     0.1644 H            1    LIG   0.0000
  14 H           -0.3349     2.3807     1.7972 H            1    LIG   0.0000
  15 H            2.6319     3.0720     0.9730 H            1    LIG   0.0000
  16 H            5.0292     3.0850     0.9760 H            1    LIG   0.0000
  17 H            2.6325    -1.0774     1.0281 H            1    LIG   0.0000
@<TRIPOS>BOND
   1        1        2 1
   2        2        3 2
   3        2        4 1
   4        4        5 ar
   5        5        6 ar
   6        6        7 ar
   7        7        8 1
   8        7        9 ar
   9        9       10 1
  10        9       11 ar
  11       11        4 ar
  12        1       12 1
  13        1       13 1
  14        1       14 1
  15        5       15 1
  16        6       16 1
  17       11       17 1

@<TRIPOS>MOLECULE

  17   17
SMALL
USER_CHARGES
@<TRIPOS>ATOM
   1 C1           0.2400     2.3162     0.9815 C.3          1    LIG   0.0000
   2 C2           1.0000     1.0000     1.0000 C.2          1    LIG   0.0000
   3 O3           0.4000    -0.0391     1.0146 O.2          1    LIG   0.0000
   4 C4           2.4497     1.0000     1.0000 C.ar         1    LIG   0.0000
   5 C5           3.1377     2.0550     1.5917 C.ar         1    LIG   0.0000
   6 C6           4.5288     2.0626     1.5981 C.ar         1    LIG   0.0000
   7 C7           5.2145     1.0064     1.0075 C.ar         1    LIG   0.0000
   8 O8           6.5647     0.9963     1.0050 O.3          1    LIG  -1.0000
   9 C9           4.5232    -0.0462     0.4171 C.ar         1    LIG   0.0000
  10 Br10         5.5030    -1.5282    -0.4108 Br           1    LIG   0.0000
  11 C11          3.1326    -0.0577     0.4089 C.ar         1    LIG   0.0000
  12 H            0.8898     3.0762     0.9709 H            1    LIG   0.0000
  13 H           -0.3349     2.3577     0.1644 H            1    LIG   0.0000
  14 H           -0.3349     2.3807     1.7972 H            1    LIG   0.0000
  15 H            2.6319     2.8079     2.0126 H            1    LIG   0.0000
  16 H            5.0292     2.8177     2.0217 H            1    LIG   0.0000
  17 H            2.6325    -0.8132    -0.0144 H            1    LIG   0.0000
@<TRIPOS>BOND
   1        1        2 1
   2        2        3 2
   3        2        4 1
   4        4        5 ar
   5        5        6 ar
   6        6        7 ar
   7        7        8 1
   8        7        9 ar
   9        9       10 1
  10        9       11 ar
  11       11        4 ar
  12        1       12 1
  13        1       13 1
  14        1       14 1
  15        5       15 1
  16        6       16 1
  17       11       17 1

@<TRIPOS>MOLECULE

  17   17
SMALL
USER_CHARGES
@<TRIPOS>ATOM
   1 C1           0.2400     2.3162     0.9815 C.3          1    LIG   0.0000
   2 C2           1.0000     1.0000     1.0000 C.2          1    LIG   0.0000
   3 O3           0.4000    -0.0391     1.0146 O.2          1    LIG   0.0000
   4 C4           2.4497     1.0000     1.0000 C.ar         1    LIG   0.0000
   5 C5           3.1377     2.0399     0.3822 C.ar         1    LIG   0.0000
   6 C6           4.5288     2.0493     0.3788 C.ar         1    LIG   0.0000
   7 C7           5.2145     1.0097     0.9982 C.ar         1    LIG   0.0000
   8 O8           6.5647     1.0025     1.0058 O.3          1    LIG  -1.0000
   9 C9           4.5232    -0.0279     1.6146 C.ar         1    LIG   0.0000
  10 Br10         5.5030    -1.4859     2.4840 Br           1    LIG   0.0000
  11 C11          3.1326    -0.0407     1.6205 C.ar         1    LIG   0.0000
  12 H            0.8898     3.0762     0.9709 H            1    LIG   0.0000
  13 H           -0.3349     2.3577     0.1644 H            1    LIG   0.0000
  14 H           -0.3349     2.3807     1.7972 H            1    LIG   0.0000
  15 H            2.6319     2.7809    -0.0594 H            1    LIG   0.0000
  16 H            5.0292     2.7937    -0.0633 H            1    LIG   0.0000
  17 H            2.6325    -0.7851     2.0631 H            1    LIG   0.0000
@<TRIPOS>BOND
   1        1        2 1
   2        2        3 2
   3        2        4 1
   4        4        5 ar
   5        5        6 ar
   6        6        7 ar
   7        7        8 1
   8        7        9 ar
   9        9       10 1
  10        9       11 ar
  11       11        4 ar
  12        1       12 1
  13        1       13 1
  14        1       14 1
  15        5       15 1
  16        6       16 1
  17       11       17 1

@<TRIPOS>MOLECULE

  17   17
SMALL
USER_CHARGES
@<TRIPOS>ATOM
   1 C1           0.2400     2.3162     0.9815 C.3          1    LIG   0.0000
   2 C2           1.0000     1.0000     1.0000 C.2          1    LIG   0.0000
   3 O3           0.4000    -0.0391     1.0146 O.2          1    LIG   0.0000
   4 C4           2.4497     1.0000     1.0000 C.ar         1    LIG   0.0000
   5 C5           3.1377     1.7890     1.9169 C.ar         1    LIG   0.0000
   6 C6           4.5288     1.7940     1.9255 C.ar         1    LIG   0.0000
   7 C7           5.2145     1.0035     1.0092 C.ar         1    LIG   0.0000
   8 O8           6.5647     0.9948     1.0035 O.3          1    LIG  -1.0000
   9 C9           4.5232     0.2163     0.0944 C.ar         1    LIG   0.0000
  10 Br10         5.5030    -0.8932    -1.1904 Br           1    LIG   0.0000
  11 C11          3.1326     0.2082     0.0828 C.ar         1    LIG   0.0000
  12 H            0.8898     3.0762     0.9709 H            1    LIG   0.0000
  13 H           -0.3349     2.3577     0.1644 H            1    LIG   0.0000
  14 H           -0.3349     2.3807     1.7972 H            1    LIG   0.0000
  15 H            2.6319     2.3526     2.5699 H            1    LIG   0.0000
  16 H            5.0292     2.3586     2.5818 H            1    LIG   0.0000
  17 H            2.6325    -0.3569    -0.5734 H            1    LIG   0.0000
@<TRIPOS>BOND
   1        1        2 1
   2        2        3 2
   3        2        4 1
   4        4        5 ar
   5        5        6 ar
   6        6        7 ar
   7        7        8 1
   8        7        9 ar
   9        9       10 1
  10        9       11 ar
  11       11        4 ar
  12        1       12 1
  13        1       13 1
  14        1       14 1
  15        5       15 1
  16        6       16 1
  17       11       17 1

@<TRIPOS>MOLECULE

  17   17
SMALL
USER_CHARGES
@<TRIPOS>ATOM
   1 C1           0.2400     2.3162     0.9815 C.3          1    LIG   0.0000
   2 C2           1.0000     1.0000     1.0000 C.2          1    LIG   0.0000
   3 O3           0.4000    -0.0391     1.0146 O.2          1    LIG   0.0000
   4 C4           2.4497     1.0000     1.0000 C.ar         1    LIG   0.0000
   5 C5           3.1377     1.7659     0.0638 C.ar         1    LIG   0.0000
   6 C6           4.5288     1.7735     0.0574 C.ar         1    LIG   0.0000
   7 C7           5.2145     1.0085     0.9950 C.ar         1    LIG   0.0000
   8 O8           6.5647     1.0043     1.0046 O.3          1    LIG  -1.0000
   9 C9           4.5232     0.2443     1.9291 C.ar         1    LIG   0.0000
  10 Br10         5.5030    -0.8284     3.2448 Br           1    LIG   0.0000
  11 C11          3.1326     0.2342     1.9390 C.ar         1    LIG   0.0000
  12 H            0.8898     3.0762     0.9709 H            1    LIG   0.0000
  13 H           -0.3349     2.3577     0.1644 H            1    LIG   0.0000
  14 H           -0.3349     2.3807     1.7972 H            1    LIG   0.0000
  15 H            2.6319     2.3112    -0.6046 H            1    LIG   0.0000
  16 H            5.0292     2.3218    -0.6127 H            1    LIG   0.0000
  17 H            2.6325    -0.3138     2.6095 H            1    LIG   0.0000
@<TRIPOS>BOND
   1        1        2 1
   2        2        3 2
   3        2        4 1
   4        4        5 ar
   5        5        6 ar
   6        6        7 ar
   7        7        8 1
   8        7        9 ar
   9        9       10 1
  10        9       11 ar
  11       11        4 ar
  12        1       12 1
  13        1       13 1
  14        1       14 1
  15        5       15 1
  16        6       16 1
  17       11       17 1

@<TRIPOS>MOLECULE

  17   17
SMALL
USER_CHARGES
@<TRIPOS>ATOM
   1 C1           0.2400     2.3162     0.9815 C.3          1    LIG   0.0000
   2 C2           1.0000     1.0000     1.0000 C.2          1    LIG   0.0000
   3 O3           0.4000    -0.0391     1.0146 O.2          1    LIG   0.0000
   4 C4           2.4497     1.0000     1.0000 C.ar         1    LIG   0.0000
   5 C5           3.1377    -0.2095     1.0150 C.ar         1    LIG   0.0000
   6 C6           4.5288    -0.2193     1.0134 C.ar         1    LIG   0.0000
   7 C7           5.2145     0.9907     0.9967 C.ar         1    LIG   0.0000
   8 O8           6.5647     1.0007     0.9938 O.3          1    LIG  -1.0000
   9 C9           4.5232     2.1975     0.9817 C.ar         1    LIG   0.0000
  10 Br10         5.5030     3.8949     0.9577 Br           1    LIG   0.0000
  11 C11          3.1326     2.2116     0.9830 C.ar         1    LIG   0.0000
  12 H            0.8898     3.0762     0.9709 H            1    LIG   0.0000
  13 H           -0.3349     2.3577     0.1644 H            1    LIG   0.0000
  14 H           -0.3349     2.3807     1.7972 H            1    LIG   0.0000
  15 H            2.6319    -1.0720     1.0270 H            1    LIG   0.0000
  16 H            5.0292    -1.0850     1.0240 H            1    LIG   0.0000
  17 H            2.6325     3.0774     0.9719 H            1    LIG   0.0000
@<TRIPOS>BOND
   1        1        2 1
   2        2        3 2
   3        2        4 1
   4        4        5 ar
   5        5        6 ar
   6        6        7 ar
   7        7        8 1
   8        7        9 ar
   9        9       10 1
  10        9       11 ar
  11       11        4 ar
  12        1       12 1
  13        1       13 1
  14        1       14 1
  15        5       15 1
  16        6       16 1
  17       11       17 1

@<TRIPOS>MOLECULE

  17   17
SMALL
USER_CHARGES
@<TRIPOS>ATOM
   1 C1           0.2400     2.3162     0.9815 C.3          1    LIG   0.0000
   2 C2           1.0000     1.0000     1.0000 C.2          1    LIG   0.0000
   3 O3           0.4000    -0.0391     1.0146 O.2          1    LIG   0.0000
   4 C4           2.4497     1.0000     1.0000 C.ar         1    LIG   0.0000
   5 C5           3.1377    -0.0550     0.4083 C.ar         1    LIG   0.0000
   6 C6           4.5288    -0.0626     0.4019 C.ar         1    LIG   0.0000
   7 C7           5.2145     0.9936     0.9925 C.ar         1    LIG   0.0000
   8 O8           6.5647     1.0037     0.9950 O.3          1    LIG  -1.0000
   9 C9           4.5232     2.0462     1.5829 C.ar         1    LIG   0.0000
  10 Br10         5.5030     3.5282     2.4108 Br           1    LIG   0.0000
  11 C11          3.1326     2.0577     1.5911 C.ar         1    LIG   0.0000
  12 H            0.8898     3.0762     0.9709 H            1    LIG   0.0000
  13 H           -0.3349     2.3577     0.1644 H            1    LIG   0.0000
  14 H           -0.3349     2.3807     1.7972 H            1    LIG   0.0000
  15 H            2.6319    -0.8079    -0.0126 H            1    LIG   0.0000
  16 H            5.0292    -0.8177    -0.0217 H            1    LIG   0.0000
  17 H            2.6325     2.8132     2.0144 H            1    LIG   0.0000
@<TRIPOS>BOND
   1        1        2 1
   2        2        3 2
   3        2        4 1
   4        4        5 ar
   5        5        6 ar
   6        6        7 ar
   7        7        8 1
   8        7        9 ar
   9        9       10 1
  10        9       11 ar
  11       11        4 ar
  12        1       12 1
  13        1       13 1
  14        1       14 1
  15        5       15 1
  16        6       16 1
  17       11       17 1

@<TRIPOS>MOLECULE

  17   17
SMALL
USER_CHARGES
@<TRIPOS>ATOM
   1 C1           0.2400     2.3162     0.9815 C.3          1    LIG   0.0000
   2 C2           1.0000     1.0000     1.0000 C.2          1    LIG   0.0000
   3 O3           0.4000    -0.0391     1.0146 O.2          1    LIG   0.0000
   4 C4           2.4497     1.0000     1.0000 C.ar         1    LIG   0.0000
   5 C5           3.1377    -0.0399     1.6178 C.ar         1    LIG   0.0000
   6 C6           4.5288    -0.0493     1.6212 C.ar         1    LIG   0.0000
   7 C7           5.2145     0.9903     1.0018 C.ar         1    LIG   0.0000
   8 O8           6.5647     0.9975     0.9942 O.3          1    LIG  -1.0000
   9 C9           4.5232     2.0279     0.3854 C.ar         1    LIG   0.0000
  10 Br10         5.5030     3.4859    -0.4840 Br           1    LIG   0.0000
  11 C11          3.1326     2.0407     0.3795 C.ar         1    LIG   0.0000
  12 H            0.8898     3.0762     0.9709 H            1    LIG   0.0000
  13 H           -0.3349     2.3577     0.1644 H            1    LIG   0.0000
  14 H           -0.3349     2.3807     1.7972 H            1    LIG   0.0000
  15 H            2.6319    -0.7809     2.0594 H            1    LIG   0.0000
  16 H            5.0292    -0.7937     2.0633 H            1    LIG   0.0000
  17 H            2.6325     2.7851    -0.0631 H            1    LIG   0.0000
@<TRIPOS>BOND
   1        1        2 1
   2        2        3 2
   3        2        4 1
   4        4        5 ar
   5        5        6 ar
   6        6        7 ar
   7        7        8 1
   8        7        9 ar
   9        9       10 1
  10        9       11 ar
  11       11        4 ar
  12        1       12 1
  13        1       13 1
  14        1       14 1
  15        5       15 1
  16        6       16 1
  17       11       17 1

@<TRIPOS>MOLECULE

  17   17
SMALL
USER_CHARGES
@<TRIPOS>ATOM
   1 C1           0.2400     2.3162     0.9815 C.3          1    LIG   0.0000
   2 C2           1.0000     1.0000     1.0000 C.2          1    LIG   0.0000
   3 O3           0.4000    -0.0391     1.0146 O.2          1    LIG   0.0000
   4 C4           2.4497     1.0000     1.0000 C.ar         1    LIG   0.0000
   5 C5           3.1377     0.2110     0.0831 C.ar         1    LIG   0.0000
   6 C6           4.5288     0.2060     0.0745 C.ar         1    LIG   0.0000
   7 C7           5.2145     0.9965     0.9908 C.ar         1    LIG   0.0000
   8 O8           6.5647     1.0052     0.9965 O.3          1    LIG  -1.0000
   9 C9           4.5232     1.7837     1.9056 C.ar         1    LIG   0.0000
  10 Br10         5.5030     2.8932     3.1904 Br           1    LIG   0.0000
  11 C11          3.1326     1.7918     1.9172 C.ar         1    LIG   0.0000
  12 H            0.8898     3.0762     0.9709 H            1    LIG   0.0000
  13 H           -0.3349     2.3577     0.1644 H            1    LIG   0.0000
  14 H           -0.3349     2.3807     1.7972 H            1    LIG   0.0000
  15 H            2.6319    -0.3526    -0.5699 H            1    LIG   0.0000
  16 H            5.0292    -0.3586    -0.5818 H            1    LIG   0.0000
  17 H            2.6325     2.3569     2.5734 H            1    LIG   0.0000
@<TRIPOS>BOND
   1        1        2 1
   2        2        3 2
   3        2        4 1
   4        4        5 ar
   5        5        6 ar
   6        6        7 ar
   7        7        8 1
   8        7        9 ar
   9        9       10 1
  10        9       11 ar
  11       11        4 ar
  12        1       12 1
  13        1       13 1
  14        1       14 1
  15        5       15 1
  16        6       16 1
  17       11       17 1

@<TRIPOS>MOLECULE

  17   17
SMALL
USER_CHARGES
@<TRIPOS>ATOM
   1 C1           0.2400     2.3162     0.9815 C.3          1    LIG   0.0000
   2 C2           1.0000     1.0000     1.0000 C.2          1    LIG   0.0000
   3 O3           0.4000    -0.0391     1.0146 O.2          1    LIG   0.0000
   4 C4           2.4497     1.0000     1.0000 C.ar         1    LIG   0.0000
   5 C5           3.1377     0.2341     1.9362 C.ar         1    LIG   0.0000
   6 C6           4.5288     0.2265     1.9426 C.ar         1    LIG   0.0000
   7 C7           5.2145     0.9915     1.0050 C.ar         1    LIG   0.0000
   8 O8           6.5647     0.9957     0.9954 O.3          1    LIG  -1.0000
   9 C9           4.5232     1.7557     0.0709 C.ar         1    LIG   0.0000
  10 Br10         5.5030     2.8284    -1.2448 Br           1    LIG   0.0000
  11 C11          3.1326     1.7658     0.0610 C.ar         1    LIG   0.0000
  12 H            0.8898     3.0762     0.9709 H            1    LIG   0.0000
  13 H           -0.3349     2.3577     0.1644 H            1    LIG   0.0000
  14 H           -0.3349     2.3807     1.7972 H            1    LIG   0.0000
  15 H            2.6319    -0.3112     2.6046 H            1    LIG   0.0000
  16 H            5.0292    -0.3218     2.6127 H            1    LIG   0.0000
  17 H            2.6325     2.3138    -0.6095 H            1    LIG   0.0000
@<TRIPOS>BOND
   1        1        2 1
   2        2        3 2
   3        2        4 1
   4        4        5 ar
   5        5        6 ar
   6        6        7 ar
   7        7        8 1
   8        7        9 ar
   9        9       10 1
  10        9       11 ar
  11       11        4 ar
  12        1       12 1
  13        1       13 1
  14        1       14 1
  15        5       15 1
  16        6       16 1
  17       11       17 1

