@<TRIPOS>MOLECULE
*****
 17 17 0 0 0
SMALL
USER_CHARGES

@<TRIPOS>ATOM
      1 C1          0.2400    2.3162    0.9815 C.3     1  LIG1        0.0000
      2 C2          1.0000    1.0000    1.0000 C.2     1  LIG1        0.0000
      3 O3          0.4000   -0.0391    1.0146 O.2     1  LIG1        0.0000
      4 C4          2.4497    1.0000    1.0000 C.3     1  LIG1        0.0000
      5 C5          3.1377   -0.0550    0.4083 C.3     1  LIG1        0.0000
      6 C6          4.5288   -0.0626    0.4019 C.3     1  LIG1        0.0000
      7 C7          5.2145    0.9936    0.9925 C.3     1  LIG1        0.0000
      8 O8          6.5647    1.0037    0.9950 O.2     1  LIG1       -1.0000
      9 C9          4.5232    2.0462    1.5829 C.3     1  LIG1        0.0000
     10 Br10        5.5030    3.5282    2.4108 Br      1  LIG1        0.0000
     11 C11         3.1326    2.0577    1.5911 C.3     1  LIG1        0.0000
     12 H           0.8898    3.0762    0.9709 H       1  LIG1        0.0000
     13 H          -0.3349    2.3577    0.1644 H       1  LIG1        0.0000
     14 H          -0.3349    2.3807    1.7972 H       1  LIG1        0.0000
     15 H           2.6319   -0.8079   -0.0126 H       1  LIG1        0.0000
     16 H           5.0292   -0.8177   -0.0217 H       1  LIG1        0.0000
     17 H           2.6325    2.8132    2.0144 H       1  LIG1        0.0000
@<TRIPOS>UNITY_ATOM_ATTR
8 1
charge -1
@<TRIPOS>BOND
     1     1     2    1
     2     2     3    2
     3     2     4    1
     4     4     5   ar
     5     5     6   ar
     6     6     7   ar
     7     7     8    1
     8     7     9   ar
     9     9    10    1
    10     9    11   ar
    11    11     4   ar
    12     1    12    1
    13     1    13    1
    14     1    14    1
    15     5    15    1
    16     6    16    1
    17    11    17    1
