@<TRIPOS>MOLECULE
*****
 17 17 0 0 0
SMALL
USER_CHARGES

@<TRIPOS>ATOM
      1 C1          0.2400    2.3162    0.9815 C.3     1  LIG1        0.0000
      2 C2          1.0000    1.0000    1.0000 C.2     1  LIG1        0.0000
      3 O3          0.4000   -0.0391    1.0146 O.2     1  LIG1        0.0000
      4 C4          2.4497    1.0000    1.0000 C.3     1  LIG1        0.0000
      5 C5          3.1377   -0.2095    1.0150 C.3     1  LIG1        0.0000
      6 C6          4.5288   -0.2193    1.0134 C.3     1  LIG1        0.0000
      7 C7          5.2145    0.9907    0.9967 C.3     1  LIG1        0.0000
      8 O8          6.5647    1.0007    0.9938 O.2     1  LIG1       -1.0000
      9 C9          4.5232    2.1975    0.9817 C.3     1  LIG1        0.0000
     10 Br10        5.5030    3.8949    0.9577 Br      1  LIG1        0.0000
     11 C11         3.1326    2.2116    0.9830 C.3     1  LIG1        0.0000
     12 H           0.8898    3.0762    0.9709 H       1  LIG1        0.0000
     13 H          -0.3349    2.3577    0.1644 H       1  LIG1        0.0000
     14 H          -0.3349    2.3807    1.7972 H       1  LIG1        0.0000
     15 H           2.6319   -1.0720    1.0270 H       1  LIG1        0.0000
     16 H           5.0292   -1.0850    1.0240 H       1  LIG1        0.0000
     17 H           2.6325    3.0774    0.9719 H       1  LIG1        0.0000
@<TRIPOS>UNITY_ATOM_ATTR
8 1
charge -1
@<TRIPOS>BOND
     1     1     2    1
     2     2     3    2
     3     2     4    1
     4     4     5   ar
     5     5     6   ar
     6     6     7   ar
     7     7     8    1
     8     7     9   ar
     9     9    10    1
    10     9    11   ar
    11    11     4   ar
    12     1    12    1
    13     1    13    1
    14     1    14    1
    15     5    15    1
    16     6    16    1
    17    11    17    1
