@<TRIPOS>MOLECULE

  26   27
SMALL
USER_CHARGES
@<TRIPOS>ATOM
   1 C1           0.3887     2.2811     1.0375 C.3          1    LIG   0.0000
   2 O2           1.0000     1.0000     1.0000 O.3          1    LIG   0.0000
   3 C3           2.3499     1.0000     1.0000 C.ar         1    LIG   0.0000
   4 C4           3.0362    -0.2093     0.9646 C.ar         1    LIG   0.0000
   5 C5           4.4270    -0.1924     0.9657 C.ar         1    LIG   0.0000
   6 F6           5.0909    -1.3439     0.9330 F            1    LIG   0.0000
   7 C7           5.1316     1.0064     1.0013 C.ar         1    LIG   0.0000
   8 C8           4.4209     2.2014     1.0360 C.ar         1    LIG   0.0000
   9 C9           5.1467     3.4569     1.0731 C.ar         1    LIG   0.0000
  10 C10          5.4948     4.0233     2.2953 C.ar         1    LIG   0.0000
  11 F11          5.1614     3.4139     3.4300 F            1    LIG   0.0000
  12 C12          6.1908     5.2264     2.3527 C.ar         1    LIG   0.0000
  13 C13          6.5424     5.8692     1.1703 C.ar         1    LIG   0.0000
  14 C14          6.1978     5.3088    -0.0549 C.ar         1    LIG   0.0000
  15 F15          6.5321     5.9197    -1.1878 F            1    LIG   0.0000
  16 C16          5.5020     4.1057    -0.1059 C.ar         1    LIG   0.0000
  17 F17          5.1749     3.5757    -1.2813 F            1    LIG   0.0000
  18 C18          3.0301     2.2126     1.0362 C.ar         1    LIG   0.0000
  19 H           -0.6058     2.1761     1.0344 H            1    LIG   0.0000
  20 H            0.6707     2.7608     1.8683 H            1    LIG   0.0000
  21 H            0.6707     2.8086     0.2360 H            1    LIG   0.0000
  22 H            2.5382    -1.0761     0.9389 H            1    LIG   0.0000
  23 H            6.1316     1.0089     1.0018 H            1    LIG   0.0000
  24 H            6.4362     5.6256     3.2361 H            1    LIG   0.0000
  25 H            7.0429     6.7344     1.2013 H            1    LIG   0.0000
  26 H            2.5282     3.0771     1.0619 H            1    LIG   0.0000
@<TRIPOS>BOND
   1        1        2 1
   2        2        3 1
   3        3        4 ar
   4        4        5 ar
   5        5        6 1
   6        5        7 ar
   7        7        8 ar
   8        8        9 1
   9        9       10 ar
  10       10       11 1
  11       10       12 ar
  12       12       13 ar
  13       13       14 ar
  14       14       15 1
  15       14       16 ar
  16       16        9 ar
  17       16       17 1
  18        8       18 ar
  19       18        3 ar
  20        1       19 1
  21        1       20 1
  22        1       21 1
  23        4       22 1
  24        7       23 1
  25       12       24 1
  26       13       25 1
  27       18       26 1

@<TRIPOS>MOLECULE

  26   27
SMALL
USER_CHARGES
@<TRIPOS>ATOM
   1 C1           0.3887     2.2811     1.0375 C.3          1    LIG   0.0000
   2 O2           1.0000     1.0000     1.0000 O.3          1    LIG   0.0000
   3 C3           2.3499     1.0000     1.0000 C.ar         1    LIG   0.0000
   4 C4           3.0362    -0.2093     0.9646 C.ar         1    LIG   0.0000
   5 C5           4.4270    -0.1924     0.9657 C.ar         1    LIG   0.0000
   6 F6           5.0909    -1.3439     0.9330 F            1    LIG   0.0000
   7 C7           5.1316     1.0064     1.0013 C.ar         1    LIG   0.0000
   8 C8           4.4209     2.2014     1.0360 C.ar         1    LIG   0.0000
   9 C9           5.1467     3.4569     1.0731 C.ar         1    LIG   0.0000
  10 C10          6.3983     3.5192     1.6776 C.ar         1    LIG   0.0000
  11 F11          6.9291     2.4276     2.2222 F            1    LIG   0.0000
  12 C12          7.1107     4.7132     1.7238 C.ar         1    LIG   0.0000
  13 C13          6.5616     5.8585     1.1566 C.ar         1    LIG   0.0000
  14 C14          5.3112     5.8035     0.5505 C.ar         1    LIG   0.0000
  15 F15          4.7826     6.8959     0.0067 F            1    LIG   0.0000
  16 C16          4.6038     4.6068     0.5075 C.ar         1    LIG   0.0000
  17 F17          3.4078     4.5617    -0.0730 F            1    LIG   0.0000
  18 C18          3.0301     2.2126     1.0362 C.ar         1    LIG   0.0000
  19 H           -0.6058     2.1761     1.0344 H            1    LIG   0.0000
  20 H            0.6707     2.7608     1.8683 H            1    LIG   0.0000
  21 H            0.6707     2.8086     0.2360 H            1    LIG   0.0000
  22 H            2.5382    -1.0761     0.9389 H            1    LIG   0.0000
  23 H            6.1316     1.0089     1.0018 H            1    LIG   0.0000
  24 H            8.0095     4.7477     2.1608 H            1    LIG   0.0000
  25 H            7.0662     6.7214     1.1846 H            1    LIG   0.0000
  26 H            2.5282     3.0771     1.0619 H            1    LIG   0.0000
@<TRIPOS>BOND
   1        1        2 1
   2        2        3 1
   3        3        4 ar
   4        4        5 ar
   5        5        6 1
   6        5        7 ar
   7        7        8 ar
   8        8        9 1
   9        9       10 ar
  10       10       11 1
  11       10       12 ar
  12       12       13 ar
  13       13       14 ar
  14       14       15 1
  15       14       16 ar
  16       16        9 ar
  17       16       17 1
  18        8       18 ar
  19       18        3 ar
  20        1       19 1
  21        1       20 1
  22        1       21 1
  23        4       22 1
  24        7       23 1
  25       12       24 1
  26       13       25 1
  27       18       26 1

@<TRIPOS>MOLECULE

  26   27
SMALL
USER_CHARGES
@<TRIPOS>ATOM
   1 C1           0.3887     2.2811     1.0375 C.3          1    LIG   0.0000
   2 O2           1.0000     1.0000     1.0000 O.3          1    LIG   0.0000
   3 C3           2.3499     1.0000     1.0000 C.ar         1    LIG   0.0000
   4 C4           3.0362    -0.2093     0.9646 C.ar         1    LIG   0.0000
   5 C5           4.4270    -0.1924     0.9657 C.ar         1    LIG   0.0000
   6 F6           5.0909    -1.3439     0.9330 F            1    LIG   0.0000
   7 C7           5.1316     1.0064     1.0013 C.ar         1    LIG   0.0000
   8 C8           4.4209     2.2014     1.0360 C.ar         1    LIG   0.0000
   9 C9           5.1467     3.4569     1.0731 C.ar         1    LIG   0.0000
  10 C10          4.5912     4.5630     1.7085 C.ar         1    LIG   0.0000
  11 F11          3.3942     4.4695     2.2816 F            1    LIG   0.0000
  12 C12          5.2708     5.7759     1.7553 C.ar         1    LIG   0.0000
  13 C13          6.5226     5.8810     1.1581 C.ar         1    LIG   0.0000
  14 C14          7.0840     4.7794     0.5213 C.ar         1    LIG   0.0000
  15 F15          8.2806     4.8752    -0.0508 F            1    LIG   0.0000
  16 C16          6.3997     3.5694     0.4778 C.ar         1    LIG   0.0000
  17 F17          6.9422     2.5201    -0.1337 F            1    LIG   0.0000
  18 C18          3.0301     2.2126     1.0362 C.ar         1    LIG   0.0000
  19 H           -0.6058     2.1761     1.0344 H            1    LIG   0.0000
  20 H            0.6707     2.7608     1.8683 H            1    LIG   0.0000
  21 H            0.6707     2.8086     0.2360 H            1    LIG   0.0000
  22 H            2.5382    -1.0761     0.9389 H            1    LIG   0.0000
  23 H            6.1316     1.0089     1.0018 H            1    LIG   0.0000
  24 H            4.8630     6.5652     2.2143 H            1    LIG   0.0000
  25 H            7.0190     6.7486     1.1866 H            1    LIG   0.0000
  26 H            2.5282     3.0771     1.0619 H            1    LIG   0.0000
@<TRIPOS>BOND
   1        1        2 1
   2        2        3 1
   3        3        4 ar
   4        4        5 ar
   5        5        6 1
   6        5        7 ar
   7        7        8 ar
   8        8        9 1
   9        9       10 ar
  10       10       11 1
  11       10       12 ar
  12       12       13 ar
  13       13       14 ar
  14       14       15 1
  15       14       16 ar
  16       16        9 ar
  17       16       17 1
  18        8       18 ar
  19       18        3 ar
  20        1       19 1
  21        1       20 1
  22        1       21 1
  23        4       22 1
  24        7       23 1
  25       12       24 1
  26       13       25 1
  27       18       26 1

@<TRIPOS>MOLECULE

  26   27
SMALL
USER_CHARGES
@<TRIPOS>ATOM
   1 C1           0.3887     2.2811     1.0375 C.3          1    LIG   0.0000
   2 O2           1.0000     1.0000     1.0000 O.3          1    LIG   0.0000
   3 C3           2.3499     1.0000     1.0000 C.ar         1    LIG   0.0000
   4 C4           3.0362    -0.2093     0.9646 C.ar         1    LIG   0.0000
   5 C5           4.4270    -0.1924     0.9657 C.ar         1    LIG   0.0000
   6 F6           5.0909    -1.3439     0.9330 F            1    LIG   0.0000
   7 C7           5.1316     1.0064     1.0013 C.ar         1    LIG   0.0000
   8 C8           4.4209     2.2014     1.0360 C.ar         1    LIG   0.0000
   9 C9           5.1467     3.4569     1.0731 C.ar         1    LIG   0.0000
  10 C10          5.4947     4.0945    -0.1136 C.ar         1    LIG   0.0000
  11 F11          5.1624     3.5525    -1.2823 F            1    LIG   0.0000
  12 C12          6.1906     5.2989    -0.0999 C.ar         1    LIG   0.0000
  13 C13          6.5415     5.8712     1.1183 C.ar         1    LIG   0.0000
  14 C14          6.1968     5.2396     2.3084 C.ar         1    LIG   0.0000
  15 F15          6.5300     5.7832     3.4753 F            1    LIG   0.0000
  16 C16          5.5010     4.0355     2.2882 C.ar         1    LIG   0.0000
  17 F17          5.1753     3.4364     3.4303 F            1    LIG   0.0000
  18 C18          3.0301     2.2126     1.0362 C.ar         1    LIG   0.0000
  19 H           -0.6058     2.1761     1.0344 H            1    LIG   0.0000
  20 H            0.6707     2.7608     1.8683 H            1    LIG   0.0000
  21 H            0.6707     2.8086     0.2360 H            1    LIG   0.0000
  22 H            2.5382    -1.0761     0.9389 H            1    LIG   0.0000
  23 H            6.1316     1.0089     1.0018 H            1    LIG   0.0000
  24 H            6.4363     5.7493    -0.9583 H            1    LIG   0.0000
  25 H            7.0417     6.7369     1.1384 H            1    LIG   0.0000
  26 H            2.5282     3.0771     1.0619 H            1    LIG   0.0000
@<TRIPOS>BOND
   1        1        2 1
   2        2        3 1
   3        3        4 ar
   4        4        5 ar
   5        5        6 1
   6        5        7 ar
   7        7        8 ar
   8        8        9 1
   9        9       10 ar
  10       10       11 1
  11       10       12 ar
  12       12       13 ar
  13       13       14 ar
  14       14       15 1
  15       14       16 ar
  16       16        9 ar
  17       16       17 1
  18        8       18 ar
  19       18        3 ar
  20        1       19 1
  21        1       20 1
  22        1       21 1
  23        4       22 1
  24        7       23 1
  25       12       24 1
  26       13       25 1
  27       18       26 1

@<TRIPOS>MOLECULE

  26   27
SMALL
USER_CHARGES
@<TRIPOS>ATOM
   1 C1           0.3887     2.2811     1.0375 C.3          1    LIG   0.0000
   2 O2           1.0000     1.0000     1.0000 O.3          1    LIG   0.0000
   3 C3           2.3499     1.0000     1.0000 C.ar         1    LIG   0.0000
   4 C4           3.0362    -0.2093     0.9646 C.ar         1    LIG   0.0000
   5 C5           4.4270    -0.1924     0.9657 C.ar         1    LIG   0.0000
   6 F6           5.0909    -1.3439     0.9330 F            1    LIG   0.0000
   7 C7           5.1316     1.0064     1.0013 C.ar         1    LIG   0.0000
   8 C8           4.4209     2.2014     1.0360 C.ar         1    LIG   0.0000
   9 C9           5.1467     3.4569     1.0731 C.ar         1    LIG   0.0000
  10 C10          4.5912     4.5986     0.5040 C.ar         1    LIG   0.0000
  11 F11          3.3947     4.5388    -0.0746 F            1    LIG   0.0000
  12 C12          5.2707     5.8122     0.5290 C.ar         1    LIG   0.0000
  13 C13          6.5222     5.8820     1.1321 C.ar         1    LIG   0.0000
  14 C14          7.0835     4.7448     1.7029 C.ar         1    LIG   0.0000
  15 F15          8.2796     4.8070     2.2808 F            1    LIG   0.0000
  16 C16          6.3992     3.5343     1.6749 C.ar         1    LIG   0.0000
  17 F17          6.9424     2.4504     2.2221 F            1    LIG   0.0000
  18 C18          3.0301     2.2126     1.0362 C.ar         1    LIG   0.0000
  19 H           -0.6058     2.1761     1.0344 H            1    LIG   0.0000
  20 H            0.6707     2.7608     1.8683 H            1    LIG   0.0000
  21 H            0.6707     2.8086     0.2360 H            1    LIG   0.0000
  22 H            2.5382    -1.0761     0.9389 H            1    LIG   0.0000
  23 H            6.1316     1.0089     1.0018 H            1    LIG   0.0000
  24 H            4.8631     6.6271     0.1171 H            1    LIG   0.0000
  25 H            7.0184     6.7499     1.1552 H            1    LIG   0.0000
  26 H            2.5282     3.0771     1.0619 H            1    LIG   0.0000
@<TRIPOS>BOND
   1        1        2 1
   2        2        3 1
   3        3        4 ar
   4        4        5 ar
   5        5        6 1
   6        5        7 ar
   7        7        8 ar
   8        8        9 1
   9        9       10 ar
  10       10       11 1
  11       10       12 ar
  12       12       13 ar
  13       13       14 ar
  14       14       15 1
  15       14       16 ar
  16       16        9 ar
  17       16       17 1
  18        8       18 ar
  19       18        3 ar
  20        1       19 1
  21        1       20 1
  22        1       21 1
  23        4       22 1
  24        7       23 1
  25       12       24 1
  26       13       25 1
  27       18       26 1

@<TRIPOS>MOLECULE

  26   27
SMALL
USER_CHARGES
@<TRIPOS>ATOM
   1 C1           0.3887     2.2811     1.0375 C.3          1    LIG   0.0000
   2 O2           1.0000     1.0000     1.0000 O.3          1    LIG   0.0000
   3 C3           2.3499     1.0000     1.0000 C.ar         1    LIG   0.0000
   4 C4           3.0362    -0.2093     0.9646 C.ar         1    LIG   0.0000
   5 C5           4.4270    -0.1924     0.9657 C.ar         1    LIG   0.0000
   6 F6           5.0909    -1.3439     0.9330 F            1    LIG   0.0000
   7 C7           5.1316     1.0064     1.0013 C.ar         1    LIG   0.0000
   8 C8           4.4209     2.2014     1.0360 C.ar         1    LIG   0.0000
   9 C9           5.1467     3.4569     1.0731 C.ar         1    LIG   0.0000
  10 C10          6.3983     3.5548     0.4732 C.ar         1    LIG   0.0000
  11 F11          6.9296     2.4969    -0.1339 F            1    LIG   0.0000
  12 C12          7.1106     4.7494     0.4974 C.ar         1    LIG   0.0000
  13 C13          6.5612     5.8595     1.1306 C.ar         1    LIG   0.0000
  14 C14          5.3107     5.7689     1.7322 C.ar         1    LIG   0.0000
  15 F15          4.7815     6.8277     2.3383 F            1    LIG   0.0000
  16 C16          4.6033     4.5718     1.7046 C.ar         1    LIG   0.0000
  17 F17          3.4080     4.4920     2.2828 F            1    LIG   0.0000
  18 C18          3.0301     2.2126     1.0362 C.ar         1    LIG   0.0000
  19 H           -0.6058     2.1761     1.0344 H            1    LIG   0.0000
  20 H            0.6707     2.7608     1.8683 H            1    LIG   0.0000
  21 H            0.6707     2.8086     0.2360 H            1    LIG   0.0000
  22 H            2.5382    -1.0761     0.9389 H            1    LIG   0.0000
  23 H            6.1316     1.0089     1.0018 H            1    LIG   0.0000
  24 H            8.0095     4.8096     0.0636 H            1    LIG   0.0000
  25 H            7.0656     6.7227     1.1532 H            1    LIG   0.0000
  26 H            2.5282     3.0771     1.0619 H            1    LIG   0.0000
@<TRIPOS>BOND
   1        1        2 1
   2        2        3 1
   3        3        4 ar
   4        4        5 ar
   5        5        6 1
   6        5        7 ar
   7        7        8 ar
   8        8        9 1
   9        9       10 ar
  10       10       11 1
  11       10       12 ar
  12       12       13 ar
  13       13       14 ar
  14       14       15 1
  15       14       16 ar
  16       16        9 ar
  17       16       17 1
  18        8       18 ar
  19       18        3 ar
  20        1       19 1
  21        1       20 1
  22        1       21 1
  23        4       22 1
  24        7       23 1
  25       12       24 1
  26       13       25 1
  27       18       26 1

@<TRIPOS>MOLECULE

  26   27
SMALL
USER_CHARGES
@<TRIPOS>ATOM
   1 C1           0.3887     2.2811     1.0375 C.3          1    LIG   0.0000
   2 O2           1.0000     1.0000     1.0000 O.3          1    LIG   0.0000
   3 C3           2.3499     1.0000     1.0000 C.ar         1    LIG   0.0000
   4 C4           3.0362     2.2093     1.0354 C.ar         1    LIG   0.0000
   5 C5           4.4270     2.1924     1.0343 C.ar         1    LIG   0.0000
   6 F6           5.0909     3.3439     1.0670 F            1    LIG   0.0000
   7 C7           5.1316     0.9936     0.9987 C.ar         1    LIG   0.0000
   8 C8           4.4209    -0.2014     0.9640 C.ar         1    LIG   0.0000
   9 C9           5.1467    -1.4569     0.9269 C.ar         1    LIG   0.0000
  10 C10          5.4948    -2.0233    -0.2953 C.ar         1    LIG   0.0000
  11 F11          5.1614    -1.4139    -1.4300 F            1    LIG   0.0000
  12 C12          6.1908    -3.2264    -0.3527 C.ar         1    LIG   0.0000
  13 C13          6.5424    -3.8692     0.8297 C.ar         1    LIG   0.0000
  14 C14          6.1978    -3.3088     2.0549 C.ar         1    LIG   0.0000
  15 F15          6.5321    -3.9197     3.1878 F            1    LIG   0.0000
  16 C16          5.5020    -2.1057     2.1059 C.ar         1    LIG   0.0000
  17 F17          5.1749    -1.5757     3.2813 F            1    LIG   0.0000
  18 C18          3.0301    -0.2126     0.9638 C.ar         1    LIG   0.0000
  19 H           -0.6058     2.1761     1.0344 H            1    LIG   0.0000
  20 H            0.6707     2.7608     1.8683 H            1    LIG   0.0000
  21 H            0.6707     2.8086     0.2360 H            1    LIG   0.0000
  22 H            2.5382     3.0761     1.0611 H            1    LIG   0.0000
  23 H            6.1316     0.9911     0.9982 H            1    LIG   0.0000
  24 H            6.4362    -3.6256    -1.2361 H            1    LIG   0.0000
  25 H            7.0429    -4.7344     0.7987 H            1    LIG   0.0000
  26 H            2.5282    -1.0771     0.9381 H            1    LIG   0.0000
@<TRIPOS>BOND
   1        1        2 1
   2        2        3 1
   3        3        4 ar
   4        4        5 ar
   5        5        6 1
   6        5        7 ar
   7        7        8 ar
   8        8        9 1
   9        9       10 ar
  10       10       11 1
  11       10       12 ar
  12       12       13 ar
  13       13       14 ar
  14       14       15 1
  15       14       16 ar
  16       16        9 ar
  17       16       17 1
  18        8       18 ar
  19       18        3 ar
  20        1       19 1
  21        1       20 1
  22        1       21 1
  23        4       22 1
  24        7       23 1
  25       12       24 1
  26       13       25 1
  27       18       26 1

@<TRIPOS>MOLECULE

  26   27
SMALL
USER_CHARGES
@<TRIPOS>ATOM
   1 C1           0.3887     2.2811     1.0375 C.3          1    LIG   0.0000
   2 O2           1.0000     1.0000     1.0000 O.3          1    LIG   0.0000
   3 C3           2.3499     1.0000     1.0000 C.ar         1    LIG   0.0000
   4 C4           3.0362     2.2093     1.0354 C.ar         1    LIG   0.0000
   5 C5           4.4270     2.1924     1.0343 C.ar         1    LIG   0.0000
   6 F6           5.0909     3.3439     1.0670 F            1    LIG   0.0000
   7 C7           5.1316     0.9936     0.9987 C.ar         1    LIG   0.0000
   8 C8           4.4209    -0.2014     0.9640 C.ar         1    LIG   0.0000
   9 C9           5.1467    -1.4569     0.9269 C.ar         1    LIG   0.0000
  10 C10          4.5912    -2.5630     0.2915 C.ar         1    LIG   0.0000
  11 F11          3.3942    -2.4695    -0.2816 F            1    LIG   0.0000
  12 C12          5.2708    -3.7759     0.2447 C.ar         1    LIG   0.0000
  13 C13          6.5226    -3.8810     0.8419 C.ar         1    LIG   0.0000
  14 C14          7.0840    -2.7794     1.4787 C.ar         1    LIG   0.0000
  15 F15          8.2806    -2.8752     2.0508 F            1    LIG   0.0000
  16 C16          6.3997    -1.5694     1.5222 C.ar         1    LIG   0.0000
  17 F17          6.9422    -0.5201     2.1337 F            1    LIG   0.0000
  18 C18          3.0301    -0.2126     0.9638 C.ar         1    LIG   0.0000
  19 H           -0.6058     2.1761     1.0344 H            1    LIG   0.0000
  20 H            0.6707     2.7608     1.8683 H            1    LIG   0.0000
  21 H            0.6707     2.8086     0.2360 H            1    LIG   0.0000
  22 H            2.5382     3.0761     1.0611 H            1    LIG   0.0000
  23 H            6.1316     0.9911     0.9982 H            1    LIG   0.0000
  24 H            4.8630    -4.5652    -0.2143 H            1    LIG   0.0000
  25 H            7.0190    -4.7486     0.8134 H            1    LIG   0.0000
  26 H            2.5282    -1.0771     0.9381 H            1    LIG   0.0000
@<TRIPOS>BOND
   1        1        2 1
   2        2        3 1
   3        3        4 ar
   4        4        5 ar
   5        5        6 1
   6        5        7 ar
   7        7        8 ar
   8        8        9 1
   9        9       10 ar
  10       10       11 1
  11       10       12 ar
  12       12       13 ar
  13       13       14 ar
  14       14       15 1
  15       14       16 ar
  16       16        9 ar
  17       16       17 1
  18        8       18 ar
  19       18        3 ar
  20        1       19 1
  21        1       20 1
  22        1       21 1
  23        4       22 1
  24        7       23 1
  25       12       24 1
  26       13       25 1
  27       18       26 1

@<TRIPOS>MOLECULE

  26   27
SMALL
USER_CHARGES
@<TRIPOS>ATOM
   1 C1           0.3887     2.2811     1.0375 C.3          1    LIG   0.0000
   2 O2           1.0000     1.0000     1.0000 O.3          1    LIG   0.0000
   3 C3           2.3499     1.0000     1.0000 C.ar         1    LIG   0.0000
   4 C4           3.0362     2.2093     1.0354 C.ar         1    LIG   0.0000
   5 C5           4.4270     2.1924     1.0343 C.ar         1    LIG   0.0000
   6 F6           5.0909     3.3439     1.0670 F            1    LIG   0.0000
   7 C7           5.1316     0.9936     0.9987 C.ar         1    LIG   0.0000
   8 C8           4.4209    -0.2014     0.9640 C.ar         1    LIG   0.0000
   9 C9           5.1467    -1.4569     0.9269 C.ar         1    LIG   0.0000
  10 C10          5.4947    -2.0945     2.1136 C.ar         1    LIG   0.0000
  11 F11          5.1624    -1.5525     3.2823 F            1    LIG   0.0000
  12 C12          6.1906    -3.2989     2.0999 C.ar         1    LIG   0.0000
  13 C13          6.5415    -3.8712     0.8817 C.ar         1    LIG   0.0000
  14 C14          6.1968    -3.2396    -0.3084 C.ar         1    LIG   0.0000
  15 F15          6.5300    -3.7832    -1.4753 F            1    LIG   0.0000
  16 C16          5.5010    -2.0355    -0.2882 C.ar         1    LIG   0.0000
  17 F17          5.1753    -1.4364    -1.4303 F            1    LIG   0.0000
  18 C18          3.0301    -0.2126     0.9638 C.ar         1    LIG   0.0000
  19 H           -0.6058     2.1761     1.0344 H            1    LIG   0.0000
  20 H            0.6707     2.7608     1.8683 H            1    LIG   0.0000
  21 H            0.6707     2.8086     0.2360 H            1    LIG   0.0000
  22 H            2.5382     3.0761     1.0611 H            1    LIG   0.0000
  23 H            6.1316     0.9911     0.9982 H            1    LIG   0.0000
  24 H            6.4363    -3.7493     2.9583 H            1    LIG   0.0000
  25 H            7.0417    -4.7369     0.8616 H            1    LIG   0.0000
  26 H            2.5282    -1.0771     0.9381 H            1    LIG   0.0000
@<TRIPOS>BOND
   1        1        2 1
   2        2        3 1
   3        3        4 ar
   4        4        5 ar
   5        5        6 1
   6        5        7 ar
   7        7        8 ar
   8        8        9 1
   9        9       10 ar
  10       10       11 1
  11       10       12 ar
  12       12       13 ar
  13       13       14 ar
  14       14       15 1
  15       14       16 ar
  16       16        9 ar
  17       16       17 1
  18        8       18 ar
  19       18        3 ar
  20        1       19 1
  21        1       20 1
  22        1       21 1
  23        4       22 1
  24        7       23 1
  25       12       24 1
  26       13       25 1
  27       18       26 1

@<TRIPOS>MOLECULE

  26   27
SMALL
USER_CHARGES
@<TRIPOS>ATOM
   1 C1           0.3887     2.2811     1.0375 C.3          1    LIG   0.0000
   2 O2           1.0000     1.0000     1.0000 O.3          1    LIG   0.0000
   3 C3           2.3499     1.0000     1.0000 C.ar         1    LIG   0.0000
   4 C4           3.0362     2.2093     1.0354 C.ar         1    LIG   0.0000
   5 C5           4.4270     2.1924     1.0343 C.ar         1    LIG   0.0000
   6 F6           5.0909     3.3439     1.0670 F            1    LIG   0.0000
   7 C7           5.1316     0.9936     0.9987 C.ar         1    LIG   0.0000
   8 C8           4.4209    -0.2014     0.9640 C.ar         1    LIG   0.0000
   9 C9           5.1467    -1.4569     0.9269 C.ar         1    LIG   0.0000
  10 C10          4.5912    -2.5986     1.4960 C.ar         1    LIG   0.0000
  11 F11          3.3947    -2.5388     2.0746 F            1    LIG   0.0000
  12 C12          5.2707    -3.8122     1.4710 C.ar         1    LIG   0.0000
  13 C13          6.5222    -3.8820     0.8679 C.ar         1    LIG   0.0000
  14 C14          7.0835    -2.7448     0.2971 C.ar         1    LIG   0.0000
  15 F15          8.2796    -2.8070    -0.2808 F            1    LIG   0.0000
  16 C16          6.3992    -1.5343     0.3251 C.ar         1    LIG   0.0000
  17 F17          6.9424    -0.4504    -0.2221 F            1    LIG   0.0000
  18 C18          3.0301    -0.2126     0.9638 C.ar         1    LIG   0.0000
  19 H           -0.6058     2.1761     1.0344 H            1    LIG   0.0000
  20 H            0.6707     2.7608     1.8683 H            1    LIG   0.0000
  21 H            0.6707     2.8086     0.2360 H            1    LIG   0.0000
  22 H            2.5382     3.0761     1.0611 H            1    LIG   0.0000
  23 H            6.1316     0.9911     0.9982 H            1    LIG   0.0000
  24 H            4.8631    -4.6271     1.8829 H            1    LIG   0.0000
  25 H            7.0184    -4.7499     0.8448 H            1    LIG   0.0000
  26 H            2.5282    -1.0771     0.9381 H            1    LIG   0.0000
@<TRIPOS>BOND
   1        1        2 1
   2        2        3 1
   3        3        4 ar
   4        4        5 ar
   5        5        6 1
   6        5        7 ar
   7        7        8 ar
   8        8        9 1
   9        9       10 ar
  10       10       11 1
  11       10       12 ar
  12       12       13 ar
  13       13       14 ar
  14       14       15 1
  15       14       16 ar
  16       16        9 ar
  17       16       17 1
  18        8       18 ar
  19       18        3 ar
  20        1       19 1
  21        1       20 1
  22        1       21 1
  23        4       22 1
  24        7       23 1
  25       12       24 1
  26       13       25 1
  27       18       26 1

@<TRIPOS>MOLECULE

  26   27
SMALL
USER_CHARGES
@<TRIPOS>ATOM
   1 C1           0.3887     2.2811     1.0375 C.3          1    LIG   0.0000
   2 O2           1.0000     1.0000     1.0000 O.3          1    LIG   0.0000
   3 C3           2.3499     1.0000     1.0000 C.ar         1    LIG   0.0000
   4 C4           3.0362     2.2093     1.0354 C.ar         1    LIG   0.0000
   5 C5           4.4270     2.1924     1.0343 C.ar         1    LIG   0.0000
   6 F6           5.0909     3.3439     1.0670 F            1    LIG   0.0000
   7 C7           5.1316     0.9936     0.9987 C.ar         1    LIG   0.0000
   8 C8           4.4209    -0.2014     0.9640 C.ar         1    LIG   0.0000
   9 C9           5.1467    -1.4569     0.9269 C.ar         1    LIG   0.0000
  10 C10          6.3983    -1.5548     1.5268 C.ar         1    LIG   0.0000
  11 F11          6.9296    -0.4969     2.1339 F            1    LIG   0.0000
  12 C12          7.1106    -2.7494     1.5026 C.ar         1    LIG   0.0000
  13 C13          6.5612    -3.8595     0.8694 C.ar         1    LIG   0.0000
  14 C14          5.3107    -3.7689     0.2678 C.ar         1    LIG   0.0000
  15 F15          4.7815    -4.8277    -0.3383 F            1    LIG   0.0000
  16 C16          4.6033    -2.5718     0.2954 C.ar         1    LIG   0.0000
  17 F17          3.4080    -2.4920    -0.2828 F            1    LIG   0.0000
  18 C18          3.0301    -0.2126     0.9638 C.ar         1    LIG   0.0000
  19 H           -0.6058     2.1761     1.0344 H            1    LIG   0.0000
  20 H            0.6707     2.7608     1.8683 H            1    LIG   0.0000
  21 H            0.6707     2.8086     0.2360 H            1    LIG   0.0000
  22 H            2.5382     3.0761     1.0611 H            1    LIG   0.0000
  23 H            6.1316     0.9911     0.9982 H            1    LIG   0.0000
  24 H            8.0095    -2.8096     1.9364 H            1    LIG   0.0000
  25 H            7.0656    -4.7227     0.8468 H            1    LIG   0.0000
  26 H            2.5282    -1.0771     0.9381 H            1    LIG   0.0000
@<TRIPOS>BOND
   1        1        2 1
   2        2        3 1
   3        3        4 ar
   4        4        5 ar
   5        5        6 1
   6        5        7 ar
   7        7        8 ar
   8        8        9 1
   9        9       10 ar
  10       10       11 1
  11       10       12 ar
  12       12       13 ar
  13       13       14 ar
  14       14       15 1
  15       14       16 ar
  16       16        9 ar
  17       16       17 1
  18        8       18 ar
  19       18        3 ar
  20        1       19 1
  21        1       20 1
  22        1       21 1
  23        4       22 1
  24        7       23 1
  25       12       24 1
  26       13       25 1
  27       18       26 1

@<TRIPOS>MOLECULE

  26   27
SMALL
USER_CHARGES
@<TRIPOS>ATOM
   1 C1           0.3887     2.2811     1.0375 C.3          1    LIG   0.0000
   2 O2           1.0000     1.0000     1.0000 O.3          1    LIG   0.0000
   3 C3           2.3499     1.0000     1.0000 C.ar         1    LIG   0.0000
   4 C4           3.0362     2.1243     1.4468 C.ar         1    LIG   0.0000
   5 C5           4.4270     2.1087     1.4401 C.ar         1    LIG   0.0000
   6 F6           5.0909     3.1796     1.8646 F            1    LIG   0.0000
   7 C7           5.1316     0.9944     0.9966 C.ar         1    LIG   0.0000
   8 C8           4.4209    -0.1167     0.5552 C.ar         1    LIG   0.0000
   9 C9           5.1467    -1.2837     0.0910 C.ar         1    LIG   0.0000
  10 C10          6.3983    -1.1355    -0.4984 C.ar         1    LIG   0.0000
  11 F11          6.9291     0.0765    -0.6368 F            1    LIG   0.0000
  12 C12          7.1107    -2.2417    -0.9501 C.ar         1    LIG   0.0000
  13 C13          6.5616    -3.5119    -0.8088 C.ar         1    LIG   0.0000
  14 C14          5.3112    -3.6675    -0.2205 C.ar         1    LIG   0.0000
  15 F15          4.7826    -4.8800    -0.0832 F            1    LIG   0.0000
  16 C16          4.6038    -2.5578     0.2292 C.ar         1    LIG   0.0000
  17 F17          3.4078    -2.7139     0.7902 F            1    LIG   0.0000
  18 C18          3.0301    -0.1271     0.5513 C.ar         1    LIG   0.0000
  19 H           -0.6058     2.1761     1.0344 H            1    LIG   0.0000
  20 H            0.6707     2.7608     1.8683 H            1    LIG   0.0000
  21 H            0.6707     2.8086     0.2360 H            1    LIG   0.0000
  22 H            2.5382     2.9300     1.7675 H            1    LIG   0.0000
  23 H            6.1316     0.9922     0.9952 H            1    LIG   0.0000
  24 H            8.0095    -2.1247    -1.3726 H            1    LIG   0.0000
  25 H            7.0662    -4.3132    -1.1303 H            1    LIG   0.0000
  26 H            2.5282    -0.9307     0.2314 H            1    LIG   0.0000
@<TRIPOS>BOND
   1        1        2 1
   2        2        3 1
   3        3        4 ar
   4        4        5 ar
   5        5        6 1
   6        5        7 ar
   7        7        8 ar
   8        8        9 1
   9        9       10 ar
  10       10       11 1
  11       10       12 ar
  12       12       13 ar
  13       13       14 ar
  14       14       15 1
  15       14       16 ar
  16       16        9 ar
  17       16       17 1
  18        8       18 ar
  19       18        3 ar
  20        1       19 1
  21        1       20 1
  22        1       21 1
  23        4       22 1
  24        7       23 1
  25       12       24 1
  26       13       25 1
  27       18       26 1

