@<TRIPOS>MOLECULE
*****
 26 27 0 0 0
SMALL
USER_CHARGES

@<TRIPOS>ATOM
      1 C1          0.3887    2.2811    1.0375 C.3     1  LIG1        0.0000
      2 O2          1.0000    1.0000    1.0000 O.3     1  LIG1        0.0000
      3 C3          2.3499    1.0000    1.0000 C.ar    1  LIG1        0.0000
      4 C4          3.0362    2.2093    1.0354 C.ar    1  LIG1        0.0000
      5 C5          4.4270    2.1924    1.0343 C.ar    1  LIG1        0.0000
      6 F6          5.0909    3.3439    1.0670 F       1  LIG1        0.0000
      7 C7          5.1316    0.9936    0.9987 C.ar    1  LIG1        0.0000
      8 C8          4.4209   -0.2014    0.9640 C.ar    1  LIG1        0.0000
      9 C9          5.1467   -1.4569    0.9269 C.ar    1  LIG1        0.0000
     10 C10         6.3983   -1.5548    1.5268 C.ar    1  LIG1        0.0000
     11 F11         6.9296   -0.4969    2.1339 F       1  LIG1        0.0000
     12 C12         7.1106   -2.7494    1.5026 C.ar    1  LIG1        0.0000
     13 C13         6.5612   -3.8595    0.8694 C.ar    1  LIG1        0.0000
     14 C14         5.3107   -3.7689    0.2678 C.ar    1  LIG1        0.0000
     15 F15         4.7815   -4.8277   -0.3383 F       1  LIG1        0.0000
     16 C16         4.6033   -2.5718    0.2954 C.ar    1  LIG1        0.0000
     17 F17         3.4080   -2.4920   -0.2828 F       1  LIG1        0.0000
     18 C18         3.0301   -0.2126    0.9638 C.ar    1  LIG1        0.0000
     19 H          -0.6058    2.1761    1.0344 H       1  LIG1        0.0000
     20 H           0.6707    2.7608    1.8683 H       1  LIG1        0.0000
     21 H           0.6707    2.8086    0.2360 H       1  LIG1        0.0000
     22 H           2.5382    3.0761    1.0611 H       1  LIG1        0.0000
     23 H           6.1316    0.9911    0.9982 H       1  LIG1        0.0000
     24 H           8.0095   -2.8096    1.9364 H       1  LIG1        0.0000
     25 H           7.0656   -4.7227    0.8468 H       1  LIG1        0.0000
     26 H           2.5282   -1.0771    0.9381 H       1  LIG1        0.0000
@<TRIPOS>BOND
     1     1     2    1
     2     2     3    1
     3     3     4   ar
     4     4     5   ar
     5     5     6    1
     6     5     7   ar
     7     7     8   ar
     8     8     9    1
     9     9    10   ar
    10    10    11    1
    11    10    12   ar
    12    12    13   ar
    13    13    14   ar
    14    14    15    1
    15    14    16   ar
    16    16     9   ar
    17    16    17    1
    18     8    18   ar
    19    18     3   ar
    20     1    19    1
    21     1    20    1
    22     1    21    1
    23     4    22    1
    24     7    23    1
    25    12    24    1
    26    13    25    1
    27    18    26    1
