@<TRIPOS>MOLECULE
*****
 26 27 0 0 0
SMALL
USER_CHARGES

@<TRIPOS>ATOM
      1 C1          0.3887    2.2811    1.0375 C.3     1  LIG1        0.0000
      2 O2          1.0000    1.0000    1.0000 O.3     1  LIG1        0.0000
      3 C3          2.3499    1.0000    1.0000 C.ar    1  LIG1        0.0000
      4 C4          3.0362    2.2093    1.0354 C.ar    1  LIG1        0.0000
      5 C5          4.4270    2.1924    1.0343 C.ar    1  LIG1        0.0000
      6 F6          5.0909    3.3439    1.0670 F       1  LIG1        0.0000
      7 C7          5.1316    0.9936    0.9987 C.ar    1  LIG1        0.0000
      8 C8          4.4209   -0.2014    0.9640 C.ar    1  LIG1        0.0000
      9 C9          5.1467   -1.4569    0.9269 C.ar    1  LIG1        0.0000
     10 C10         4.5912   -2.5630    0.2915 C.ar    1  LIG1        0.0000
     11 F11         3.3942   -2.4695   -0.2816 F       1  LIG1        0.0000
     12 C12         5.2708   -3.7759    0.2447 C.ar    1  LIG1        0.0000
     13 C13         6.5226   -3.8810    0.8419 C.ar    1  LIG1        0.0000
     14 C14         7.0840   -2.7794    1.4787 C.ar    1  LIG1        0.0000
     15 F15         8.2806   -2.8752    2.0508 F       1  LIG1        0.0000
     16 C16         6.3997   -1.5694    1.5222 C.ar    1  LIG1        0.0000
     17 F17         6.9422   -0.5201    2.1337 F       1  LIG1        0.0000
     18 C18         3.0301   -0.2126    0.9638 C.ar    1  LIG1        0.0000
     19 H          -0.6058    2.1761    1.0344 H       1  LIG1        0.0000
     20 H           0.6707    2.7608    1.8683 H       1  LIG1        0.0000
     21 H           0.6707    2.8086    0.2360 H       1  LIG1        0.0000
     22 H           2.5382    3.0761    1.0611 H       1  LIG1        0.0000
     23 H           6.1316    0.9911    0.9982 H       1  LIG1        0.0000
     24 H           4.8630   -4.5652   -0.2143 H       1  LIG1        0.0000
     25 H           7.0190   -4.7486    0.8134 H       1  LIG1        0.0000
     26 H           2.5282   -1.0771    0.9381 H       1  LIG1        0.0000
@<TRIPOS>BOND
     1     1     2    1
     2     2     3    1
     3     3     4   ar
     4     4     5   ar
     5     5     6    1
     6     5     7   ar
     7     7     8   ar
     8     8     9    1
     9     9    10   ar
    10    10    11    1
    11    10    12   ar
    12    12    13   ar
    13    13    14   ar
    14    14    15    1
    15    14    16   ar
    16    16     9   ar
    17    16    17    1
    18     8    18   ar
    19    18     3   ar
    20     1    19    1
    21     1    20    1
    22     1    21    1
    23     4    22    1
    24     7    23    1
    25    12    24    1
    26    13    25    1
    27    18    26    1
