@<TRIPOS>MOLECULE
*****
 26 27 0 0 0
SMALL
USER_CHARGES

@<TRIPOS>ATOM
      1 C1          0.3887    2.2811    1.0375 C.3     1  LIG1        0.0000
      2 O2          1.0000    1.0000    1.0000 O.3     1  LIG1        0.0000
      3 C3          2.3499    1.0000    1.0000 C.ar    1  LIG1        0.0000
      4 C4          3.0362    2.1243    1.4468 C.ar    1  LIG1        0.0000
      5 C5          4.4270    2.1087    1.4401 C.ar    1  LIG1        0.0000
      6 F6          5.0909    3.1796    1.8646 F       1  LIG1        0.0000
      7 C7          5.1316    0.9944    0.9966 C.ar    1  LIG1        0.0000
      8 C8          4.4209   -0.1167    0.5552 C.ar    1  LIG1        0.0000
      9 C9          5.1467   -1.2837    0.0910 C.ar    1  LIG1        0.0000
     10 C10         6.3983   -1.1355   -0.4984 C.ar    1  LIG1        0.0000
     11 F11         6.9291    0.0765   -0.6368 F       1  LIG1        0.0000
     12 C12         7.1107   -2.2417   -0.9501 C.ar    1  LIG1        0.0000
     13 C13         6.5616   -3.5119   -0.8088 C.ar    1  LIG1        0.0000
     14 C14         5.3112   -3.6675   -0.2205 C.ar    1  LIG1        0.0000
     15 F15         4.7826   -4.8800   -0.0832 F       1  LIG1        0.0000
     16 C16         4.6038   -2.5578    0.2292 C.ar    1  LIG1        0.0000
     17 F17         3.4078   -2.7139    0.7902 F       1  LIG1        0.0000
     18 C18         3.0301   -0.1271    0.5513 C.ar    1  LIG1        0.0000
     19 H          -0.6058    2.1761    1.0344 H       1  LIG1        0.0000
     20 H           0.6707    2.7608    1.8683 H       1  LIG1        0.0000
     21 H           0.6707    2.8086    0.2360 H       1  LIG1        0.0000
     22 H           2.5382    2.9300    1.7675 H       1  LIG1        0.0000
     23 H           6.1316    0.9922    0.9952 H       1  LIG1        0.0000
     24 H           8.0095   -2.1247   -1.3726 H       1  LIG1        0.0000
     25 H           7.0662   -4.3132   -1.1303 H       1  LIG1        0.0000
     26 H           2.5282   -0.9307    0.2314 H       1  LIG1        0.0000
@<TRIPOS>BOND
     1     1     2    1
     2     2     3    1
     3     3     4   ar
     4     4     5   ar
     5     5     6    1
     6     5     7   ar
     7     7     8   ar
     8     8     9    1
     9     9    10   ar
    10    10    11    1
    11    10    12   ar
    12    12    13   ar
    13    13    14   ar
    14    14    15    1
    15    14    16   ar
    16    16     9   ar
    17    16    17    1
    18     8    18   ar
    19    18     3   ar
    20     1    19    1
    21     1    20    1
    22     1    21    1
    23     4    22    1
    24     7    23    1
    25    12    24    1
    26    13    25    1
    27    18    26    1
