@<TRIPOS>MOLECULE
*****
 26 27 0 0 0
SMALL
USER_CHARGES

@<TRIPOS>ATOM
      1 C1          0.3887    2.2811    1.0375 C.3     1  LIG1        0.0000
      2 O2          1.0000    1.0000    1.0000 O.3     1  LIG1        0.0000
      3 C3          2.3499    1.0000    1.0000 C.ar    1  LIG1        0.0000
      4 C4          3.0362   -0.2093    0.9646 C.ar    1  LIG1        0.0000
      5 C5          4.4270   -0.1924    0.9657 C.ar    1  LIG1        0.0000
      6 F6          5.0909   -1.3439    0.9330 F       1  LIG1        0.0000
      7 C7          5.1316    1.0064    1.0013 C.ar    1  LIG1        0.0000
      8 C8          4.4209    2.2014    1.0360 C.ar    1  LIG1        0.0000
      9 C9          5.1467    3.4569    1.0731 C.ar    1  LIG1        0.0000
     10 C10         6.3983    3.5192    1.6776 C.ar    1  LIG1        0.0000
     11 F11         6.9291    2.4276    2.2222 F       1  LIG1        0.0000
     12 C12         7.1107    4.7132    1.7238 C.ar    1  LIG1        0.0000
     13 C13         6.5616    5.8585    1.1566 C.ar    1  LIG1        0.0000
     14 C14         5.3112    5.8035    0.5505 C.ar    1  LIG1        0.0000
     15 F15         4.7826    6.8959    0.0067 F       1  LIG1        0.0000
     16 C16         4.6038    4.6068    0.5075 C.ar    1  LIG1        0.0000
     17 F17         3.4078    4.5617   -0.0730 F       1  LIG1        0.0000
     18 C18         3.0301    2.2126    1.0362 C.ar    1  LIG1        0.0000
     19 H          -0.6058    2.1761    1.0344 H       1  LIG1        0.0000
     20 H           0.6707    2.7608    1.8683 H       1  LIG1        0.0000
     21 H           0.6707    2.8086    0.2360 H       1  LIG1        0.0000
     22 H           2.5382   -1.0761    0.9389 H       1  LIG1        0.0000
     23 H           6.1316    1.0089    1.0018 H       1  LIG1        0.0000
     24 H           8.0095    4.7477    2.1608 H       1  LIG1        0.0000
     25 H           7.0662    6.7214    1.1846 H       1  LIG1        0.0000
     26 H           2.5282    3.0771    1.0619 H       1  LIG1        0.0000
@<TRIPOS>BOND
     1     1     2    1
     2     2     3    1
     3     3     4   ar
     4     4     5   ar
     5     5     6    1
     6     5     7   ar
     7     7     8   ar
     8     8     9    1
     9     9    10   ar
    10    10    11    1
    11    10    12   ar
    12    12    13   ar
    13    13    14   ar
    14    14    15    1
    15    14    16   ar
    16    16     9   ar
    17    16    17    1
    18     8    18   ar
    19    18     3   ar
    20     1    19    1
    21     1    20    1
    22     1    21    1
    23     4    22    1
    24     7    23    1
    25    12    24    1
    26    13    25    1
    27    18    26    1
