@<TRIPOS>MOLECULE
*****
 32 33 0 0 0
SMALL
USER_CHARGES

@<TRIPOS>ATOM
      1 C1         -2.4880    0.5839   -1.5996 C.3     1  LIG1        0.0000
      2 C2         -2.4160    1.7841   -0.6690 C.2     1  LIG1        0.0000
      3 C3         -3.4871    2.6853   -0.4375 C.2     1  LIG1        0.0000
      4 C4         -3.2338    3.7078    0.4258 C.2     1  LIG1        0.0000
      5 S5         -1.6210    3.4876    0.9293 S.3     1  LIG1        0.0000
      6 C6         -1.2817    2.0857    0.0254 C.2     1  LIG1        0.0000
      7 C7         -0.0173    1.3776    0.0102 C.ar    1  LIG1        0.0000
      8 C8          1.1712    2.1003    0.0072 C.ar    1  LIG1        0.0000
      9 C9          2.3824    1.4162   -0.0077 C.ar    1  LIG1        0.0000
     10 C10         2.3953    0.0257   -0.0205 C.ar    1  LIG1        0.0000
     11 C11         3.7226   -0.7135   -0.0371 C.3     1  LIG1        0.0000
     12 C12         3.8258   -1.5973    1.1952 C.3     1  LIG1        0.0000
     13 C13         3.8073   -1.5746   -1.2868 C.3     1  LIG1        0.0000
     14 O14         5.0479   -2.2655   -1.3023 O.3     1  LIG1        0.0000
     15 C15         1.2016   -0.6895   -0.0163 C.ar    1  LIG1        0.0000
     16 C16        -0.0137   -0.0137   -0.0015 C.ar    1  LIG1        0.0000
     17 H           4.4725   -0.0520   -0.0367 H       1  LIG1        0.0000
     18 H          -3.3979    0.5355   -2.0115 H       1  LIG1        0.0000
     19 H          -1.8007    0.6789   -2.3198 H       1  LIG1        0.0000
     20 H          -2.3126   -0.2521   -1.0797 H       1  LIG1        0.0000
     21 H          -4.3761    2.5761   -0.8821 H       1  LIG1        0.0000
     22 H          -3.8617    4.4343    0.7051 H       1  LIG1        0.0000
     23 H           1.1552    3.1001    0.0158 H       1  LIG1        0.0000
     24 H           3.2436    1.9243   -0.0092 H       1  LIG1        0.0000
     25 H           4.6994   -2.0838    1.1842 H       1  LIG1        0.0000
     26 H           3.7700   -1.0308    2.0173 H       1  LIG1        0.0000
     27 H           3.0758   -2.2588    1.1947 H       1  LIG1        0.0000
     28 H           3.0574   -2.2361   -1.2873 H       1  LIG1        0.0000
     29 H           3.7394   -0.9932   -2.0975 H       1  LIG1        0.0000
     30 H           5.1036   -2.8320   -2.1245 H       1  LIG1        0.0000
     31 H           1.2177   -1.6893   -0.0240 H       1  LIG1        0.0000
     32 H          -0.8750   -0.5218    0.0008 H       1  LIG1        0.0000
@<TRIPOS>BOND
     1     1     2    1
     2     2     3    1
     3     3     4    2
     4     4     5    1
     5     5     6    1
     6     6     2    2
     7     6     7    1
     8     7     8   ar
     9     8     9   ar
    10     9    10   ar
    11    10    11    1
    12    11    12    1
    13    11    13    1
    14    13    14    1
    15    10    15   ar
    16    15    16   ar
    17    16     7   ar
    18    11    17    1
    19     1    18    1
    20     1    19    1
    21     1    20    1
    22     3    21    1
    23     4    22    1
    24     8    23    1
    25     9    24    1
    26    12    25    1
    27    12    26    1
    28    12    27    1
    29    13    28    1
    30    13    29    1
    31    14    30    1
    32    15    31    1
    33    16    32    1
