@<TRIPOS>MOLECULE
*****
 32 33 0 0 0
SMALL
USER_CHARGES

@<TRIPOS>ATOM
      1 C1         -0.9247    3.2934    2.2083 C.3     1  LIG1        0.0000
      2 C2         -1.7438    2.9491    0.9745 C.2     1  LIG1        0.0000
      3 C3         -3.0325    3.4727    0.6951 C.2     1  LIG1        0.0000
      4 C4         -3.6167    3.0430   -0.4577 C.2     1  LIG1        0.0000
      5 S5         -2.4930    1.9755   -1.1654 S.3     1  LIG1        0.0000
      6 C6         -1.2817    2.0857    0.0254 C.2     1  LIG1        0.0000
      7 C7         -0.0173    1.3776    0.0102 C.ar    1  LIG1        0.0000
      8 C8          1.1712    2.1003    0.0072 C.ar    1  LIG1        0.0000
      9 C9          2.3824    1.4162   -0.0077 C.ar    1  LIG1        0.0000
     10 C10         2.3953    0.0257   -0.0205 C.ar    1  LIG1        0.0000
     11 C11         3.7226   -0.7135   -0.0371 C.3     1  LIG1        0.0000
     12 C12         4.5046   -0.3227   -1.2805 C.3     1  LIG1        0.0000
     13 C13         4.5231   -0.3454    1.2014 C.3     1  LIG1        0.0000
     14 O14         5.7636   -1.0362    1.1859 O.3     1  LIG1        0.0000
     15 C15         1.2016   -0.6895   -0.0163 C.ar    1  LIG1        0.0000
     16 C16        -0.0137   -0.0137   -0.0015 C.ar    1  LIG1        0.0000
     17 H           3.5550   -1.6993   -0.0449 H       1  LIG1        0.0000
     18 H          -1.4344    3.9386    2.7774 H       1  LIG1        0.0000
     19 H          -0.7423    2.4603    2.7305 H       1  LIG1        0.0000
     20 H          -0.0587    3.7078    1.9285 H       1  LIG1        0.0000
     21 H          -3.4854    4.1195    1.3087 H       1  LIG1        0.0000
     22 H          -4.5153    3.2998   -0.8136 H       1  LIG1        0.0000
     23 H           1.1552    3.1001    0.0158 H       1  LIG1        0.0000
     24 H           3.2436    1.9243   -0.0092 H       1  LIG1        0.0000
     25 H           5.3782   -0.8092   -1.2915 H       1  LIG1        0.0000
     26 H           3.9780   -0.5649   -2.0954 H       1  LIG1        0.0000
     27 H           4.6722    0.6632   -1.2728 H       1  LIG1        0.0000
     28 H           4.6906    0.6405    1.2092 H       1  LIG1        0.0000
     29 H           4.0086   -0.6025    2.0195 H       1  LIG1        0.0000
     30 H           6.2902   -0.7940    2.0008 H       1  LIG1        0.0000
     31 H           1.2177   -1.6893   -0.0240 H       1  LIG1        0.0000
     32 H          -0.8750   -0.5218    0.0008 H       1  LIG1        0.0000
@<TRIPOS>BOND
     1     1     2    1
     2     2     3    1
     3     3     4    2
     4     4     5    1
     5     5     6    1
     6     6     2    2
     7     6     7    1
     8     7     8   ar
     9     8     9   ar
    10     9    10   ar
    11    10    11    1
    12    11    12    1
    13    11    13    1
    14    13    14    1
    15    10    15   ar
    16    15    16   ar
    17    16     7   ar
    18    11    17    1
    19     1    18    1
    20     1    19    1
    21     1    20    1
    22     3    21    1
    23     4    22    1
    24     8    23    1
    25     9    24    1
    26    12    25    1
    27    12    26    1
    28    12    27    1
    29    13    28    1
    30    13    29    1
    31    14    30    1
    32    15    31    1
    33    16    32    1
