@<TRIPOS>MOLECULE
*****
 16 17 0 0 0
SMALL
USER_CHARGES

@<TRIPOS>ATOM
      1 O1          3.4774    1.9961   -0.0423 O.2     1  LIG1        0.0000
      2 C2          2.4196    1.3887   -0.0278 C.2     1  LIG1        0.0000
      3 N3          2.3945    0.0186   -0.0271 N.am    1  LIG1        0.0000
      4 C4          1.2053   -0.6632   -0.0037 C.2     1  LIG1        0.0000
      5 C5          0.0153    0.0185    0.0127 C.2     1  LIG1        0.0000
      6 N6         -0.0047    1.3894    0.0051 N.pl3   1  LIG1        0.0000
      7 C7         -1.0403    2.2754    0.0211 C.2     1  LIG1        0.0000
      8 C8         -0.4991    3.5252    0.0117 C.2     1  LIG1        0.0000
      9 Br9        -1.4842    5.2199    0.0224 Br      1  LIG1        0.0000
     10 C10         0.9055    3.3988   -0.0096 C.2     1  LIG1        0.0000
     11 C11         1.1727    2.0607   -0.0117 C.2     1  LIG1        0.0000
     12 H           3.2550   -0.4907   -0.0440 H       1  LIG1        0.0000
     13 H           1.2055   -1.6632    0.0014 H       1  LIG1        0.0000
     14 H          -0.8460   -0.4892    0.0304 H       1  LIG1        0.0000
     15 H          -2.0145    2.0501    0.0367 H       1  LIG1        0.0000
     16 H           1.5736    4.1428   -0.0210 H       1  LIG1        0.0000
@<TRIPOS>BOND
     1     1     2    2
     2     2     3   am
     3     3     4    1
     4     4     5    2
     5     5     6    1
     6     6     7    1
     7     7     8    2
     8     8     9    1
     9     8    10    1
    10    10    11    2
    11    11     2    1
    12    11     6    1
    13     3    12    1
    14     4    13    1
    15     5    14    1
    16     7    15    1
    17    10    16    1
