@<TRIPOS>MOLECULE

  31   32
SMALL
USER_CHARGES
@<TRIPOS>ATOM
   1 C1           3.7010     2.8476    -0.6878 C.3          1    LIG   0.0000
   2 C2           3.9128     1.8264     0.4180 C.3          1    LIG   0.0000
   3 N3           3.1639     2.2382     1.6160 N.pl3        1    LIG   0.0000
   4 C4           1.8775     1.8775     1.8775 C.2          1    LIG   0.0000
   5 C5           1.0000     1.0000     1.0000 C.3          1    LIG   0.0000
   6 C6          -0.3648     0.8380     1.6492 C.3          1    LIG   0.0000
   7 C7          -1.2424    -0.0396     0.7717 C.3          1    LIG   0.0000
   8 O8          -2.5174    -0.1909     1.3782 O.3          1    LIG   0.0000
   9 N9           1.5269     2.4191     3.0208 N.2          1    LIG   0.0000
  10 C10          2.5844     3.1370     3.5051 C.ar         1    LIG   0.0000
  11 C11          2.7109     3.8982     4.6628 C.ar         1    LIG   0.0000
  12 C12          3.8967     4.5617     4.9564 C.ar         1    LIG   0.0000
  13 C13          4.9774     4.4701     4.0857 C.ar         1    LIG   0.0000
  14 F14          6.1094     5.1145     4.3782 F            1    LIG   0.0000
  15 C15          4.8200     3.7022     2.9332 C.ar         1    LIG   0.0000
  16 F16          5.8615     3.6275     2.1090 F            1    LIG   0.0000
  17 C17          3.6337     3.0288     2.6238 C.ar         1    LIG   0.0000
  18 H            4.2099     2.5678    -1.5019 H            1    LIG   0.0000
  19 H            2.7270     2.9046    -0.9068 H            1    LIG   0.0000
  20 H            4.0268     3.7423    -0.3822 H            1    LIG   0.0000
  21 H            3.5870     0.9318     0.1124 H            1    LIG   0.0000
  22 H            4.8869     1.7695     0.6370 H            1    LIG   0.0000
  23 H            1.4271     0.1021     0.8934 H            1    LIG   0.0000
  24 H            0.8934     1.4271     0.1021 H            1    LIG   0.0000
  25 H           -0.2582     0.4109     2.5471 H            1    LIG   0.0000
  26 H           -0.7919     1.7359     1.7558 H            1    LIG   0.0000
  27 H           -1.3489     0.3875    -0.1262 H            1    LIG   0.0000
  28 H           -0.8152    -0.9375     0.6651 H            1    LIG   0.0000
  29 H           -3.0947    -0.7683     0.8008 H            1    LIG   0.0000
  30 H            1.9376     3.9691     5.2928 H            1    LIG   0.0000
  31 H            3.9726     5.1043     5.7929 H            1    LIG   0.0000
@<TRIPOS>BOND
   1        1        2 1
   2        2        3 1
   3        3        4 1
   4        4        5 1
   5        5        6 1
   6        6        7 1
   7        7        8 1
   8        4        9 2
   9        9       10 1
  10       10       11 ar
  11       11       12 ar
  12       12       13 ar
  13       13       14 1
  14       13       15 ar
  15       15       16 1
  16       15       17 ar
  17       17       10 ar
  18       17        3 1
  19        1       18 1
  20        1       19 1
  21        1       20 1
  22        2       21 1
  23        2       22 1
  24        5       23 1
  25        5       24 1
  26        6       25 1
  27        6       26 1
  28        7       27 1
  29        7       28 1
  30        8       29 1
  31       11       30 1
  32       12       31 1

@<TRIPOS>MOLECULE

  31   32
SMALL
USER_CHARGES
@<TRIPOS>ATOM
   1 C1           4.6403     0.5217     0.6988 C.3          1    LIG   0.0000
   2 C2           3.9128     1.8264     0.4180 C.3          1    LIG   0.0000
   3 N3           3.1639     2.2382     1.6160 N.pl3        1    LIG   0.0000
   4 C4           1.8775     1.8775     1.8775 C.2          1    LIG   0.0000
   5 C5           1.0000     1.0000     1.0000 C.3          1    LIG   0.0000
   6 C6          -0.3648     0.8380     1.6492 C.3          1    LIG   0.0000
   7 C7          -1.2424    -0.0396     0.7717 C.3          1    LIG   0.0000
   8 O8          -2.5174    -0.1909     1.3782 O.3          1    LIG   0.0000
   9 N9           1.5269     2.4191     3.0208 N.2          1    LIG   0.0000
  10 C10          2.5844     3.1370     3.5051 C.ar         1    LIG   0.0000
  11 C11          2.7109     3.8982     4.6628 C.ar         1    LIG   0.0000
  12 C12          3.8967     4.5617     4.9564 C.ar         1    LIG   0.0000
  13 C13          4.9774     4.4701     4.0857 C.ar         1    LIG   0.0000
  14 F14          6.1094     5.1145     4.3782 F            1    LIG   0.0000
  15 C15          4.8200     3.7022     2.9332 C.ar         1    LIG   0.0000
  16 F16          5.8615     3.6275     2.1090 F            1    LIG   0.0000
  17 C17          3.6337     3.0288     2.6238 C.ar         1    LIG   0.0000
  18 H            5.1492     0.2419    -0.1152 H            1    LIG   0.0000
  19 H            5.2751     0.6513     1.4606 H            1    LIG   0.0000
  20 H            3.9753    -0.1864     0.9360 H            1    LIG   0.0000
  21 H            4.5779     2.5346     0.1809 H            1    LIG   0.0000
  22 H            3.2781     1.6969    -0.3437 H            1    LIG   0.0000
  23 H            1.4271     0.1021     0.8934 H            1    LIG   0.0000
  24 H            0.8934     1.4271     0.1021 H            1    LIG   0.0000
  25 H           -0.2582     0.4109     2.5471 H            1    LIG   0.0000
  26 H           -0.7919     1.7359     1.7558 H            1    LIG   0.0000
  27 H           -1.3489     0.3875    -0.1262 H            1    LIG   0.0000
  28 H           -0.8152    -0.9375     0.6651 H            1    LIG   0.0000
  29 H           -3.0947    -0.7683     0.8008 H            1    LIG   0.0000
  30 H            1.9376     3.9691     5.2928 H            1    LIG   0.0000
  31 H            3.9726     5.1043     5.7929 H            1    LIG   0.0000
@<TRIPOS>BOND
   1        1        2 1
   2        2        3 1
   3        3        4 1
   4        4        5 1
   5        5        6 1
   6        6        7 1
   7        7        8 1
   8        4        9 2
   9        9       10 1
  10       10       11 ar
  11       11       12 ar
  12       12       13 ar
  13       13       14 1
  14       13       15 ar
  15       15       16 1
  16       15       17 ar
  17       17       10 ar
  18       17        3 1
  19        1       18 1
  20        1       19 1
  21        1       20 1
  22        2       21 1
  23        2       22 1
  24        5       23 1
  25        5       24 1
  26        6       25 1
  27        6       26 1
  28        7       27 1
  29        7       28 1
  30        8       29 1
  31       11       30 1
  32       12       31 1

@<TRIPOS>MOLECULE

  31   32
SMALL
USER_CHARGES
@<TRIPOS>ATOM
   1 C1           2.4463     3.9948    -0.5803 C.3          1    LIG   0.0000
   2 C2           3.2570     2.8656     0.0347 C.3          1    LIG   0.0000
   3 N3           2.8739     2.6986     1.4457 N.pl3        1    LIG   0.0000
   4 C4           1.8775     1.8775     1.8775 C.2          1    LIG   0.0000
   5 C5           1.0000     1.0000     1.0000 C.3          1    LIG   0.0000
   6 C6          -0.3648     0.8380     1.6492 C.3          1    LIG   0.0000
   7 C7          -1.2424    -0.0396     0.7717 C.3          1    LIG   0.0000
   8 O8          -2.5174    -0.1909     1.3782 O.3          1    LIG   0.0000
   9 N9           1.8072     1.9748     3.1848 N.2          1    LIG   0.0000
  10 C10          2.7565     2.8630     3.6071 C.ar         1    LIG   0.0000
  11 C11          3.0718     3.3159     4.8842 C.ar         1    LIG   0.0000
  12 C12          4.0877     4.2437     5.0834 C.ar         1    LIG   0.0000
  13 C13          4.8039     4.7330     3.9962 C.ar         1    LIG   0.0000
  14 F14          5.7751     5.6258     4.2011 F            1    LIG   0.0000
  15 C15          4.4639     4.2624     2.7291 C.ar         1    LIG   0.0000
  16 F16          5.1558     4.7427     1.6995 F            1    LIG   0.0000
  17 C17          3.4447     3.3293     2.5123 C.ar         1    LIG   0.0000
  18 H            2.7067     4.1082    -1.5391 H            1    LIG   0.0000
  19 H            1.4724     3.7754    -0.5231 H            1    LIG   0.0000
  20 H            2.6266     4.8436    -0.0832 H            1    LIG   0.0000
  21 H            3.0768     2.0168    -0.4624 H            1    LIG   0.0000
  22 H            4.2310     3.0850    -0.0226 H            1    LIG   0.0000
  23 H            1.4271     0.1021     0.8934 H            1    LIG   0.0000
  24 H            0.8934     1.4271     0.1021 H            1    LIG   0.0000
  25 H           -0.2582     0.4109     2.5471 H            1    LIG   0.0000
  26 H           -0.7919     1.7359     1.7558 H            1    LIG   0.0000
  27 H           -1.3489     0.3875    -0.1262 H            1    LIG   0.0000
  28 H           -0.8152    -0.9375     0.6651 H            1    LIG   0.0000
  29 H           -3.0947    -0.7683     0.8008 H            1    LIG   0.0000
  30 H            2.5603     2.9689     5.6703 H            1    LIG   0.0000
  31 H            4.3033     4.5590     6.0076 H            1    LIG   0.0000
@<TRIPOS>BOND
   1        1        2 1
   2        2        3 1
   3        3        4 1
   4        4        5 1
   5        5        6 1
   6        6        7 1
   7        7        8 1
   8        4        9 2
   9        9       10 1
  10       10       11 ar
  11       11       12 ar
  12       12       13 ar
  13       13       14 1
  14       13       15 ar
  15       15       16 1
  16       15       17 ar
  17       17       10 ar
  18       17        3 1
  19        1       18 1
  20        1       19 1
  21        1       20 1
  22        2       21 1
  23        2       22 1
  24        5       23 1
  25        5       24 1
  26        6       25 1
  27        6       26 1
  28        7       27 1
  29        7       28 1
  30        8       29 1
  31       11       30 1
  32       12       31 1

@<TRIPOS>MOLECULE

  31   32
SMALL
USER_CHARGES
@<TRIPOS>ATOM
   1 C1           4.3315     1.8514    -0.3220 C.3          1    LIG   0.0000
   2 C2           3.2570     2.8656     0.0347 C.3          1    LIG   0.0000
   3 N3           2.8739     2.6986     1.4457 N.pl3        1    LIG   0.0000
   4 C4           1.8775     1.8775     1.8775 C.2          1    LIG   0.0000
   5 C5           1.0000     1.0000     1.0000 C.3          1    LIG   0.0000
   6 C6          -0.3648     0.8380     1.6492 C.3          1    LIG   0.0000
   7 C7          -1.2424    -0.0396     0.7717 C.3          1    LIG   0.0000
   8 O8          -2.5174    -0.1909     1.3782 O.3          1    LIG   0.0000
   9 N9           1.8072     1.9748     3.1848 N.2          1    LIG   0.0000
  10 C10          2.7565     2.8630     3.6071 C.ar         1    LIG   0.0000
  11 C11          3.0718     3.3159     4.8842 C.ar         1    LIG   0.0000
  12 C12          4.0877     4.2437     5.0834 C.ar         1    LIG   0.0000
  13 C13          4.8039     4.7330     3.9962 C.ar         1    LIG   0.0000
  14 F14          5.7751     5.6258     4.2011 F            1    LIG   0.0000
  15 C15          4.4639     4.2624     2.7291 C.ar         1    LIG   0.0000
  16 F16          5.1558     4.7427     1.6995 F            1    LIG   0.0000
  17 C17          3.4447     3.3293     2.5123 C.ar         1    LIG   0.0000
  18 H            4.5919     1.9648    -1.2808 H            1    LIG   0.0000
  19 H            5.1319     1.9951     0.2600 H            1    LIG   0.0000
  20 H            3.9777     0.9269    -0.1798 H            1    LIG   0.0000
  21 H            3.6109     3.7900    -0.1075 H            1    LIG   0.0000
  22 H            2.4566     2.7219    -0.5473 H            1    LIG   0.0000
  23 H            1.4271     0.1021     0.8934 H            1    LIG   0.0000
  24 H            0.8934     1.4271     0.1021 H            1    LIG   0.0000
  25 H           -0.2582     0.4109     2.5471 H            1    LIG   0.0000
  26 H           -0.7919     1.7359     1.7558 H            1    LIG   0.0000
  27 H           -1.3489     0.3875    -0.1262 H            1    LIG   0.0000
  28 H           -0.8152    -0.9375     0.6651 H            1    LIG   0.0000
  29 H           -3.0947    -0.7683     0.8008 H            1    LIG   0.0000
  30 H            2.5603     2.9689     5.6703 H            1    LIG   0.0000
  31 H            4.3033     4.5590     6.0076 H            1    LIG   0.0000
@<TRIPOS>BOND
   1        1        2 1
   2        2        3 1
   3        3        4 1
   4        4        5 1
   5        5        6 1
   6        6        7 1
   7        7        8 1
   8        4        9 2
   9        9       10 1
  10       10       11 ar
  11       11       12 ar
  12       12       13 ar
  13       13       14 1
  14       13       15 ar
  15       15       16 1
  16       15       17 ar
  17       17       10 ar
  18       17        3 1
  19        1       18 1
  20        1       19 1
  21        1       20 1
  22        2       21 1
  23        2       22 1
  24        5       23 1
  25        5       24 1
  26        6       25 1
  27        6       26 1
  28        7       27 1
  29        7       28 1
  30        8       29 1
  31       11       30 1
  32       12       31 1

@<TRIPOS>MOLECULE

  31   32
SMALL
USER_CHARGES
@<TRIPOS>ATOM
   1 C1           4.4875     1.4609    -0.0875 C.3          1    LIG   0.0000
   2 C2           4.0702     0.8478     1.2393 C.3          1    LIG   0.0000
   3 N3           3.2331     1.8050     1.9802 N.pl3        1    LIG   0.0000
   4 C4           1.8775     1.8775     1.8775 C.2          1    LIG   0.0000
   5 C5           1.0000     1.0000     1.0000 C.3          1    LIG   0.0000
   6 C6          -0.3648     0.8380     1.6492 C.3          1    LIG   0.0000
   7 C7          -1.2424    -0.0396     0.7717 C.3          1    LIG   0.0000
   8 O8          -2.5174    -0.1909     1.3782 O.3          1    LIG   0.0000
   9 N9           1.4597     2.8374     2.6697 N.2          1    LIG   0.0000
  10 C10          2.5439     3.3945     3.2880 C.ar         1    LIG   0.0000
  11 C11          2.6304     4.4428     4.1987 C.ar         1    LIG   0.0000
  12 C12          3.8598     4.8555     4.6995 C.ar         1    LIG   0.0000
  13 C13          5.0259     4.2182     4.2891 C.ar         1    LIG   0.0000
  14 F14          6.2002     4.6263     4.7756 F            1    LIG   0.0000
  15 C15          4.9078     3.1731     3.3745 C.ar         1    LIG   0.0000
  16 F16          6.0325     2.5762     2.9893 F            1    LIG   0.0000
  17 C17          3.6785     2.7462     2.8616 C.ar         1    LIG   0.0000
  18 H            5.0563     0.8105    -0.5910 H            1    LIG   0.0000
  19 H            3.6729     1.6774    -0.6256 H            1    LIG   0.0000
  20 H            5.0079     2.2980     0.0810 H            1    LIG   0.0000
  21 H            3.5498     0.0107     1.0707 H            1    LIG   0.0000
  22 H            4.8848     0.6313     1.7773 H            1    LIG   0.0000
  23 H            1.4271     0.1021     0.8934 H            1    LIG   0.0000
  24 H            0.8934     1.4271     0.1021 H            1    LIG   0.0000
  25 H           -0.2582     0.4109     2.5471 H            1    LIG   0.0000
  26 H           -0.7919     1.7359     1.7558 H            1    LIG   0.0000
  27 H           -1.3489     0.3875    -0.1262 H            1    LIG   0.0000
  28 H           -0.8152    -0.9375     0.6651 H            1    LIG   0.0000
  29 H           -3.0947    -0.7683     0.8008 H            1    LIG   0.0000
  30 H            1.7960     4.9061     4.4974 H            1    LIG   0.0000
  31 H            3.9057     5.6100     5.3542 H            1    LIG   0.0000
@<TRIPOS>BOND
   1        1        2 1
   2        2        3 1
   3        3        4 1
   4        4        5 1
   5        5        6 1
   6        6        7 1
   7        7        8 1
   8        4        9 2
   9        9       10 1
  10       10       11 ar
  11       11       12 ar
  12       12       13 ar
  13       13       14 1
  14       13       15 ar
  15       15       16 1
  16       15       17 ar
  17       17       10 ar
  18       17        3 1
  19        1       18 1
  20        1       19 1
  21        1       20 1
  22        2       21 1
  23        2       22 1
  24        5       23 1
  25        5       24 1
  26        6       25 1
  27        6       26 1
  28        7       27 1
  29        7       28 1
  30        8       29 1
  31       11       30 1
  32       12       31 1

@<TRIPOS>MOLECULE

  31   32
SMALL
USER_CHARGES
@<TRIPOS>ATOM
   1 C1           4.2293    -0.4242     2.0559 C.3          1    LIG   0.0000
   2 C2           4.0702     0.8478     1.2393 C.3          1    LIG   0.0000
   3 N3           3.2331     1.8050     1.9802 N.pl3        1    LIG   0.0000
   4 C4           1.8775     1.8775     1.8775 C.2          1    LIG   0.0000
   5 C5           1.0000     1.0000     1.0000 C.3          1    LIG   0.0000
   6 C6          -0.3648     0.8380     1.6492 C.3          1    LIG   0.0000
   7 C7          -1.2424    -0.0396     0.7717 C.3          1    LIG   0.0000
   8 O8          -2.5174    -0.1909     1.3782 O.3          1    LIG   0.0000
   9 N9           1.4597     2.8374     2.6697 N.2          1    LIG   0.0000
  10 C10          2.5439     3.3945     3.2880 C.ar         1    LIG   0.0000
  11 C11          2.6304     4.4428     4.1987 C.ar         1    LIG   0.0000
  12 C12          3.8598     4.8555     4.6995 C.ar         1    LIG   0.0000
  13 C13          5.0259     4.2182     4.2891 C.ar         1    LIG   0.0000
  14 F14          6.2002     4.6263     4.7756 F            1    LIG   0.0000
  15 C15          4.9078     3.1731     3.3745 C.ar         1    LIG   0.0000
  16 F16          6.0325     2.5762     2.9893 F            1    LIG   0.0000
  17 C17          3.6785     2.7462     2.8616 C.ar         1    LIG   0.0000
  18 H            4.7981    -1.0746     1.5524 H            1    LIG   0.0000
  19 H            4.6647    -0.2072     2.9296 H            1    LIG   0.0000
  20 H            3.3297    -0.8278     2.2229 H            1    LIG   0.0000
  21 H            4.9698     1.2514     1.0722 H            1    LIG   0.0000
  22 H            3.6348     0.6308     0.3656 H            1    LIG   0.0000
  23 H            1.4271     0.1021     0.8934 H            1    LIG   0.0000
  24 H            0.8934     1.4271     0.1021 H            1    LIG   0.0000
  25 H           -0.2582     0.4109     2.5471 H            1    LIG   0.0000
  26 H           -0.7919     1.7359     1.7558 H            1    LIG   0.0000
  27 H           -1.3489     0.3875    -0.1262 H            1    LIG   0.0000
  28 H           -0.8152    -0.9375     0.6651 H            1    LIG   0.0000
  29 H           -3.0947    -0.7683     0.8008 H            1    LIG   0.0000
  30 H            1.7960     4.9061     4.4974 H            1    LIG   0.0000
  31 H            3.9057     5.6100     5.3542 H            1    LIG   0.0000
@<TRIPOS>BOND
   1        1        2 1
   2        2        3 1
   3        3        4 1
   4        4        5 1
   5        5        6 1
   6        6        7 1
   7        7        8 1
   8        4        9 2
   9        9       10 1
  10       10       11 ar
  11       11       12 ar
  12       12       13 ar
  13       13       14 1
  14       13       15 ar
  15       15       16 1
  16       15       17 ar
  17       17       10 ar
  18       17        3 1
  19        1       18 1
  20        1       19 1
  21        1       20 1
  22        2       21 1
  23        2       22 1
  24        5       23 1
  25        5       24 1
  26        6       25 1
  27        6       26 1
  28        7       27 1
  29        7       28 1
  30        8       29 1
  31       11       30 1
  32       12       31 1

@<TRIPOS>MOLECULE

  31   32
SMALL
USER_CHARGES
@<TRIPOS>ATOM
   1 C1           3.9948    -0.5803     2.4463 C.3          1    LIG   0.0000
   2 C2           2.8656     0.0347     3.2570 C.3          1    LIG   0.0000
   3 N3           2.6986     1.4457     2.8739 N.pl3        1    LIG   0.0000
   4 C4           1.8775     1.8775     1.8775 C.2          1    LIG   0.0000
   5 C5           1.0000     1.0000     1.0000 C.3          1    LIG   0.0000
   6 C6          -0.3648     0.8380     1.6492 C.3          1    LIG   0.0000
   7 C7          -1.2424    -0.0396     0.7717 C.3          1    LIG   0.0000
   8 O8          -2.5174    -0.1909     1.3782 O.3          1    LIG   0.0000
   9 N9           1.9748     3.1848     1.8072 N.2          1    LIG   0.0000
  10 C10          2.8630     3.6071     2.7565 C.ar         1    LIG   0.0000
  11 C11          3.3159     4.8842     3.0718 C.ar         1    LIG   0.0000
  12 C12          4.2437     5.0834     4.0877 C.ar         1    LIG   0.0000
  13 C13          4.7330     3.9962     4.8039 C.ar         1    LIG   0.0000
  14 F14          5.6258     4.2011     5.7751 F            1    LIG   0.0000
  15 C15          4.2624     2.7291     4.4639 C.ar         1    LIG   0.0000
  16 F16          4.7427     1.6995     5.1558 F            1    LIG   0.0000
  17 C17          3.3293     2.5123     3.4447 C.ar         1    LIG   0.0000
  18 H            4.1082    -1.5391     2.7067 H            1    LIG   0.0000
  19 H            3.7754    -0.5231     1.4724 H            1    LIG   0.0000
  20 H            4.8436    -0.0832     2.6266 H            1    LIG   0.0000
  21 H            2.0168    -0.4624     3.0768 H            1    LIG   0.0000
  22 H            3.0850    -0.0226     4.2310 H            1    LIG   0.0000
  23 H            1.4271     0.1021     0.8934 H            1    LIG   0.0000
  24 H            0.8934     1.4271     0.1021 H            1    LIG   0.0000
  25 H           -0.2582     0.4109     2.5471 H            1    LIG   0.0000
  26 H           -0.7919     1.7359     1.7558 H            1    LIG   0.0000
  27 H           -1.3489     0.3875    -0.1262 H            1    LIG   0.0000
  28 H           -0.8152    -0.9375     0.6651 H            1    LIG   0.0000
  29 H           -3.0947    -0.7683     0.8008 H            1    LIG   0.0000
  30 H            2.9689     5.6703     2.5603 H            1    LIG   0.0000
  31 H            4.5590     6.0076     4.3033 H            1    LIG   0.0000
@<TRIPOS>BOND
   1        1        2 1
   2        2        3 1
   3        3        4 1
   4        4        5 1
   5        5        6 1
   6        6        7 1
   7        7        8 1
   8        4        9 2
   9        9       10 1
  10       10       11 ar
  11       11       12 ar
  12       12       13 ar
  13       13       14 1
  14       13       15 ar
  15       15       16 1
  16       15       17 ar
  17       17       10 ar
  18       17        3 1
  19        1       18 1
  20        1       19 1
  21        1       20 1
  22        2       21 1
  23        2       22 1
  24        5       23 1
  25        5       24 1
  26        6       25 1
  27        6       26 1
  28        7       27 1
  29        7       28 1
  30        8       29 1
  31       11       30 1
  32       12       31 1

@<TRIPOS>MOLECULE

  31   32
SMALL
USER_CHARGES
@<TRIPOS>ATOM
   1 C1           1.8514    -0.3220     4.3315 C.3          1    LIG   0.0000
   2 C2           2.8656     0.0347     3.2570 C.3          1    LIG   0.0000
   3 N3           2.6986     1.4457     2.8739 N.pl3        1    LIG   0.0000
   4 C4           1.8775     1.8775     1.8775 C.2          1    LIG   0.0000
   5 C5           1.0000     1.0000     1.0000 C.3          1    LIG   0.0000
   6 C6          -0.3648     0.8380     1.6492 C.3          1    LIG   0.0000
   7 C7          -1.2424    -0.0396     0.7717 C.3          1    LIG   0.0000
   8 O8          -2.5174    -0.1909     1.3782 O.3          1    LIG   0.0000
   9 N9           1.9748     3.1848     1.8072 N.2          1    LIG   0.0000
  10 C10          2.8630     3.6071     2.7565 C.ar         1    LIG   0.0000
  11 C11          3.3159     4.8842     3.0718 C.ar         1    LIG   0.0000
  12 C12          4.2437     5.0834     4.0877 C.ar         1    LIG   0.0000
  13 C13          4.7330     3.9962     4.8039 C.ar         1    LIG   0.0000
  14 F14          5.6258     4.2011     5.7751 F            1    LIG   0.0000
  15 C15          4.2624     2.7291     4.4639 C.ar         1    LIG   0.0000
  16 F16          4.7427     1.6995     5.1558 F            1    LIG   0.0000
  17 C17          3.3293     2.5123     3.4447 C.ar         1    LIG   0.0000
  18 H            1.9648    -1.2808     4.5919 H            1    LIG   0.0000
  19 H            1.9951     0.2600     5.1319 H            1    LIG   0.0000
  20 H            0.9269    -0.1798     3.9777 H            1    LIG   0.0000
  21 H            3.7900    -0.1075     3.6109 H            1    LIG   0.0000
  22 H            2.7219    -0.5473     2.4566 H            1    LIG   0.0000
  23 H            1.4271     0.1021     0.8934 H            1    LIG   0.0000
  24 H            0.8934     1.4271     0.1021 H            1    LIG   0.0000
  25 H           -0.2582     0.4109     2.5471 H            1    LIG   0.0000
  26 H           -0.7919     1.7359     1.7558 H            1    LIG   0.0000
  27 H           -1.3489     0.3875    -0.1262 H            1    LIG   0.0000
  28 H           -0.8152    -0.9375     0.6651 H            1    LIG   0.0000
  29 H           -3.0947    -0.7683     0.8008 H            1    LIG   0.0000
  30 H            2.9689     5.6703     2.5603 H            1    LIG   0.0000
  31 H            4.5590     6.0076     4.3033 H            1    LIG   0.0000
@<TRIPOS>BOND
   1        1        2 1
   2        2        3 1
   3        3        4 1
   4        4        5 1
   5        5        6 1
   6        6        7 1
   7        7        8 1
   8        4        9 2
   9        9       10 1
  10       10       11 ar
  11       11       12 ar
  12       12       13 ar
  13       13       14 1
  14       13       15 ar
  15       15       16 1
  16       15       17 ar
  17       17       10 ar
  18       17        3 1
  19        1       18 1
  20        1       19 1
  21        1       20 1
  22        2       21 1
  23        2       22 1
  24        5       23 1
  25        5       24 1
  26        6       25 1
  27        6       26 1
  28        7       27 1
  29        7       28 1
  30        8       29 1
  31       11       30 1
  32       12       31 1

@<TRIPOS>MOLECULE

  31   32
SMALL
USER_CHARGES
@<TRIPOS>ATOM
   1 C1          -0.0875     4.4875     1.4609 C.3          1    LIG   0.0000
   2 C2           1.2393     4.0702     0.8478 C.3          1    LIG   0.0000
   3 N3           1.9802     3.2331     1.8050 N.pl3        1    LIG   0.0000
   4 C4           1.8775     1.8775     1.8775 C.2          1    LIG   0.0000
   5 C5           1.0000     1.0000     1.0000 C.3          1    LIG   0.0000
   6 C6          -0.3648     0.8380     1.6492 C.3          1    LIG   0.0000
   7 C7          -1.2424    -0.0396     0.7717 C.3          1    LIG   0.0000
   8 O8          -2.5174    -0.1909     1.3782 O.3          1    LIG   0.0000
   9 N9           2.6697     1.4597     2.8374 N.2          1    LIG   0.0000
  10 C10          3.2880     2.5439     3.3945 C.ar         1    LIG   0.0000
  11 C11          4.1987     2.6304     4.4428 C.ar         1    LIG   0.0000
  12 C12          4.6995     3.8598     4.8555 C.ar         1    LIG   0.0000
  13 C13          4.2891     5.0259     4.2182 C.ar         1    LIG   0.0000
  14 F14          4.7756     6.2002     4.6263 F            1    LIG   0.0000
  15 C15          3.3745     4.9078     3.1731 C.ar         1    LIG   0.0000
  16 F16          2.9893     6.0325     2.5762 F            1    LIG   0.0000
  17 C17          2.8616     3.6785     2.7462 C.ar         1    LIG   0.0000
  18 H           -0.5910     5.0563     0.8105 H            1    LIG   0.0000
  19 H           -0.6256     3.6729     1.6774 H            1    LIG   0.0000
  20 H            0.0810     5.0079     2.2980 H            1    LIG   0.0000
  21 H            1.0707     3.5498     0.0107 H            1    LIG   0.0000
  22 H            1.7773     4.8848     0.6313 H            1    LIG   0.0000
  23 H            1.4271     0.1021     0.8934 H            1    LIG   0.0000
  24 H            0.8934     1.4271     0.1021 H            1    LIG   0.0000
  25 H           -0.2582     0.4109     2.5471 H            1    LIG   0.0000
  26 H           -0.7919     1.7359     1.7558 H            1    LIG   0.0000
  27 H           -1.3489     0.3875    -0.1262 H            1    LIG   0.0000
  28 H           -0.8152    -0.9375     0.6651 H            1    LIG   0.0000
  29 H           -3.0947    -0.7683     0.8008 H            1    LIG   0.0000
  30 H            4.4974     1.7960     4.9061 H            1    LIG   0.0000
  31 H            5.3542     3.9057     5.6100 H            1    LIG   0.0000
@<TRIPOS>BOND
   1        1        2 1
   2        2        3 1
   3        3        4 1
   4        4        5 1
   5        5        6 1
   6        6        7 1
   7        7        8 1
   8        4        9 2
   9        9       10 1
  10       10       11 ar
  11       11       12 ar
  12       12       13 ar
  13       13       14 1
  14       13       15 ar
  15       15       16 1
  16       15       17 ar
  17       17       10 ar
  18       17        3 1
  19        1       18 1
  20        1       19 1
  21        1       20 1
  22        2       21 1
  23        2       22 1
  24        5       23 1
  25        5       24 1
  26        6       25 1
  27        6       26 1
  28        7       27 1
  29        7       28 1
  30        8       29 1
  31       11       30 1
  32       12       31 1

@<TRIPOS>MOLECULE

  31   32
SMALL
USER_CHARGES
@<TRIPOS>ATOM
   1 C1           2.0559     4.2293    -0.4242 C.3          1    LIG   0.0000
   2 C2           1.2393     4.0702     0.8478 C.3          1    LIG   0.0000
   3 N3           1.9802     3.2331     1.8050 N.pl3        1    LIG   0.0000
   4 C4           1.8775     1.8775     1.8775 C.2          1    LIG   0.0000
   5 C5           1.0000     1.0000     1.0000 C.3          1    LIG   0.0000
   6 C6          -0.3648     0.8380     1.6492 C.3          1    LIG   0.0000
   7 C7          -1.2424    -0.0396     0.7717 C.3          1    LIG   0.0000
   8 O8          -2.5174    -0.1909     1.3782 O.3          1    LIG   0.0000
   9 N9           2.6697     1.4597     2.8374 N.2          1    LIG   0.0000
  10 C10          3.2880     2.5439     3.3945 C.ar         1    LIG   0.0000
  11 C11          4.1987     2.6304     4.4428 C.ar         1    LIG   0.0000
  12 C12          4.6995     3.8598     4.8555 C.ar         1    LIG   0.0000
  13 C13          4.2891     5.0259     4.2182 C.ar         1    LIG   0.0000
  14 F14          4.7756     6.2002     4.6263 F            1    LIG   0.0000
  15 C15          3.3745     4.9078     3.1731 C.ar         1    LIG   0.0000
  16 F16          2.9893     6.0325     2.5762 F            1    LIG   0.0000
  17 C17          2.8616     3.6785     2.7462 C.ar         1    LIG   0.0000
  18 H            1.5524     4.7981    -1.0746 H            1    LIG   0.0000
  19 H            2.9296     4.6647    -0.2072 H            1    LIG   0.0000
  20 H            2.2229     3.3297    -0.8278 H            1    LIG   0.0000
  21 H            1.0722     4.9698     1.2514 H            1    LIG   0.0000
  22 H            0.3656     3.6348     0.6308 H            1    LIG   0.0000
  23 H            1.4271     0.1021     0.8934 H            1    LIG   0.0000
  24 H            0.8934     1.4271     0.1021 H            1    LIG   0.0000
  25 H           -0.2582     0.4109     2.5471 H            1    LIG   0.0000
  26 H           -0.7919     1.7359     1.7558 H            1    LIG   0.0000
  27 H           -1.3489     0.3875    -0.1262 H            1    LIG   0.0000
  28 H           -0.8152    -0.9375     0.6651 H            1    LIG   0.0000
  29 H           -3.0947    -0.7683     0.8008 H            1    LIG   0.0000
  30 H            4.4974     1.7960     4.9061 H            1    LIG   0.0000
  31 H            5.3542     3.9057     5.6100 H            1    LIG   0.0000
@<TRIPOS>BOND
   1        1        2 1
   2        2        3 1
   3        3        4 1
   4        4        5 1
   5        5        6 1
   6        6        7 1
   7        7        8 1
   8        4        9 2
   9        9       10 1
  10       10       11 ar
  11       11       12 ar
  12       12       13 ar
  13       13       14 1
  14       13       15 ar
  15       15       16 1
  16       15       17 ar
  17       17       10 ar
  18       17        3 1
  19        1       18 1
  20        1       19 1
  21        1       20 1
  22        2       21 1
  23        2       22 1
  24        5       23 1
  25        5       24 1
  26        6       25 1
  27        6       26 1
  28        7       27 1
  29        7       28 1
  30        8       29 1
  31       11       30 1
  32       12       31 1

