@<TRIPOS>MOLECULE
*****
 31 32 0 0 0
SMALL
USER_CHARGES

@<TRIPOS>ATOM
      1 C1          2.4463    3.9948   -0.5803 C.3     1  LIG1        0.0000
      2 C2          3.2570    2.8656    0.0347 C.3     1  LIG1        0.0000
      3 N3          2.8739    2.6986    1.4457 N.pl3   1  LIG1        0.0000
      4 C4          1.8775    1.8775    1.8775 C.2     1  LIG1        0.0000
      5 C5          1.0000    1.0000    1.0000 C.3     1  LIG1        0.0000
      6 C6         -0.3648    0.8380    1.6492 C.3     1  LIG1        0.0000
      7 C7         -1.2424   -0.0396    0.7717 C.3     1  LIG1        0.0000
      8 O8         -2.5174   -0.1909    1.3782 O.3     1  LIG1        0.0000
      9 N9          1.8072    1.9748    3.1848 N.2     1  LIG1        0.0000
     10 C10         2.7565    2.8630    3.6071 C.ar    1  LIG1        0.0000
     11 C11         3.0718    3.3159    4.8842 C.ar    1  LIG1        0.0000
     12 C12         4.0877    4.2437    5.0834 C.ar    1  LIG1        0.0000
     13 C13         4.8039    4.7330    3.9962 C.ar    1  LIG1        0.0000
     14 F14         5.7751    5.6258    4.2011 F       1  LIG1        0.0000
     15 C15         4.4639    4.2624    2.7291 C.ar    1  LIG1        0.0000
     16 F16         5.1558    4.7427    1.6995 F       1  LIG1        0.0000
     17 C17         3.4447    3.3293    2.5123 C.ar    1  LIG1        0.0000
     18 H           2.7067    4.1082   -1.5391 H       1  LIG1        0.0000
     19 H           1.4724    3.7754   -0.5231 H       1  LIG1        0.0000
     20 H           2.6266    4.8436   -0.0832 H       1  LIG1        0.0000
     21 H           3.0768    2.0168   -0.4624 H       1  LIG1        0.0000
     22 H           4.2310    3.0850   -0.0226 H       1  LIG1        0.0000
     23 H           1.4271    0.1021    0.8934 H       1  LIG1        0.0000
     24 H           0.8934    1.4271    0.1021 H       1  LIG1        0.0000
     25 H          -0.2582    0.4109    2.5471 H       1  LIG1        0.0000
     26 H          -0.7919    1.7359    1.7558 H       1  LIG1        0.0000
     27 H          -1.3489    0.3875   -0.1262 H       1  LIG1        0.0000
     28 H          -0.8152   -0.9375    0.6651 H       1  LIG1        0.0000
     29 H          -3.0947   -0.7683    0.8008 H       1  LIG1        0.0000
     30 H           2.5603    2.9689    5.6703 H       1  LIG1        0.0000
     31 H           4.3033    4.5590    6.0076 H       1  LIG1        0.0000
@<TRIPOS>BOND
     1     1     2    1
     2     2     3    1
     3     3     4    1
     4     4     5    1
     5     5     6    1
     6     6     7    1
     7     7     8    1
     8     4     9    2
     9     9    10    1
    10    10    11   ar
    11    11    12   ar
    12    12    13   ar
    13    13    14    1
    14    13    15   ar
    15    15    16    1
    16    15    17   ar
    17    17    10   ar
    18    17     3    1
    19     1    18    1
    20     1    19    1
    21     1    20    1
    22     2    21    1
    23     2    22    1
    24     5    23    1
    25     5    24    1
    26     6    25    1
    27     6    26    1
    28     7    27    1
    29     7    28    1
    30     8    29    1
    31    11    30    1
    32    12    31    1
