@<TRIPOS>MOLECULE
*****
 31 32 0 0 0
SMALL
USER_CHARGES

@<TRIPOS>ATOM
      1 C1          2.0559    4.2293   -0.4242 C.3     1  LIG1        0.0000
      2 C2          1.2393    4.0702    0.8478 C.3     1  LIG1        0.0000
      3 N3          1.9802    3.2331    1.8050 N.pl3   1  LIG1        0.0000
      4 C4          1.8775    1.8775    1.8775 C.2     1  LIG1        0.0000
      5 C5          1.0000    1.0000    1.0000 C.3     1  LIG1        0.0000
      6 C6         -0.3648    0.8380    1.6492 C.3     1  LIG1        0.0000
      7 C7         -1.2424   -0.0396    0.7717 C.3     1  LIG1        0.0000
      8 O8         -2.5174   -0.1909    1.3782 O.3     1  LIG1        0.0000
      9 N9          2.6697    1.4597    2.8374 N.2     1  LIG1        0.0000
     10 C10         3.2880    2.5439    3.3945 C.ar    1  LIG1        0.0000
     11 C11         4.1987    2.6304    4.4428 C.ar    1  LIG1        0.0000
     12 C12         4.6995    3.8598    4.8555 C.ar    1  LIG1        0.0000
     13 C13         4.2891    5.0259    4.2182 C.ar    1  LIG1        0.0000
     14 F14         4.7756    6.2002    4.6263 F       1  LIG1        0.0000
     15 C15         3.3745    4.9078    3.1731 C.ar    1  LIG1        0.0000
     16 F16         2.9893    6.0325    2.5762 F       1  LIG1        0.0000
     17 C17         2.8616    3.6785    2.7462 C.ar    1  LIG1        0.0000
     18 H           1.5524    4.7981   -1.0746 H       1  LIG1        0.0000
     19 H           2.9296    4.6647   -0.2072 H       1  LIG1        0.0000
     20 H           2.2229    3.3297   -0.8278 H       1  LIG1        0.0000
     21 H           1.0722    4.9698    1.2514 H       1  LIG1        0.0000
     22 H           0.3656    3.6348    0.6308 H       1  LIG1        0.0000
     23 H           1.4271    0.1021    0.8934 H       1  LIG1        0.0000
     24 H           0.8934    1.4271    0.1021 H       1  LIG1        0.0000
     25 H          -0.2582    0.4109    2.5471 H       1  LIG1        0.0000
     26 H          -0.7919    1.7359    1.7558 H       1  LIG1        0.0000
     27 H          -1.3489    0.3875   -0.1262 H       1  LIG1        0.0000
     28 H          -0.8152   -0.9375    0.6651 H       1  LIG1        0.0000
     29 H          -3.0947   -0.7683    0.8008 H       1  LIG1        0.0000
     30 H           4.4974    1.7960    4.9061 H       1  LIG1        0.0000
     31 H           5.3542    3.9057    5.6100 H       1  LIG1        0.0000
@<TRIPOS>BOND
     1     1     2    1
     2     2     3    1
     3     3     4    1
     4     4     5    1
     5     5     6    1
     6     6     7    1
     7     7     8    1
     8     4     9    2
     9     9    10    1
    10    10    11   ar
    11    11    12   ar
    12    12    13   ar
    13    13    14    1
    14    13    15   ar
    15    15    16    1
    16    15    17   ar
    17    17    10   ar
    18    17     3    1
    19     1    18    1
    20     1    19    1
    21     1    20    1
    22     2    21    1
    23     2    22    1
    24     5    23    1
    25     5    24    1
    26     6    25    1
    27     6    26    1
    28     7    27    1
    29     7    28    1
    30     8    29    1
    31    11    30    1
    32    12    31    1
