@<TRIPOS>MOLECULE
*****
 31 32 0 0 0
SMALL
USER_CHARGES

@<TRIPOS>ATOM
      1 C1          4.6403    0.5217    0.6988 C.3     1  LIG1        0.0000
      2 C2          3.9128    1.8264    0.4180 C.3     1  LIG1        0.0000
      3 N3          3.1639    2.2382    1.6160 N.pl3   1  LIG1        0.0000
      4 C4          1.8775    1.8775    1.8775 C.2     1  LIG1        0.0000
      5 C5          1.0000    1.0000    1.0000 C.3     1  LIG1        0.0000
      6 C6         -0.3648    0.8380    1.6492 C.3     1  LIG1        0.0000
      7 C7         -1.2424   -0.0396    0.7717 C.3     1  LIG1        0.0000
      8 O8         -2.5174   -0.1909    1.3782 O.3     1  LIG1        0.0000
      9 N9          1.5269    2.4191    3.0208 N.2     1  LIG1        0.0000
     10 C10         2.5844    3.1370    3.5051 C.ar    1  LIG1        0.0000
     11 C11         2.7109    3.8982    4.6628 C.ar    1  LIG1        0.0000
     12 C12         3.8967    4.5617    4.9564 C.ar    1  LIG1        0.0000
     13 C13         4.9774    4.4701    4.0857 C.ar    1  LIG1        0.0000
     14 F14         6.1094    5.1145    4.3782 F       1  LIG1        0.0000
     15 C15         4.8200    3.7022    2.9332 C.ar    1  LIG1        0.0000
     16 F16         5.8615    3.6275    2.1090 F       1  LIG1        0.0000
     17 C17         3.6337    3.0288    2.6238 C.ar    1  LIG1        0.0000
     18 H           5.1492    0.2419   -0.1152 H       1  LIG1        0.0000
     19 H           5.2751    0.6513    1.4606 H       1  LIG1        0.0000
     20 H           3.9753   -0.1864    0.9360 H       1  LIG1        0.0000
     21 H           4.5779    2.5346    0.1809 H       1  LIG1        0.0000
     22 H           3.2781    1.6969   -0.3437 H       1  LIG1        0.0000
     23 H           1.4271    0.1021    0.8934 H       1  LIG1        0.0000
     24 H           0.8934    1.4271    0.1021 H       1  LIG1        0.0000
     25 H          -0.2582    0.4109    2.5471 H       1  LIG1        0.0000
     26 H          -0.7919    1.7359    1.7558 H       1  LIG1        0.0000
     27 H          -1.3489    0.3875   -0.1262 H       1  LIG1        0.0000
     28 H          -0.8152   -0.9375    0.6651 H       1  LIG1        0.0000
     29 H          -3.0947   -0.7683    0.8008 H       1  LIG1        0.0000
     30 H           1.9376    3.9691    5.2928 H       1  LIG1        0.0000
     31 H           3.9726    5.1043    5.7929 H       1  LIG1        0.0000
@<TRIPOS>BOND
     1     1     2    1
     2     2     3    1
     3     3     4    1
     4     4     5    1
     5     5     6    1
     6     6     7    1
     7     7     8    1
     8     4     9    2
     9     9    10    1
    10    10    11   ar
    11    11    12   ar
    12    12    13   ar
    13    13    14    1
    14    13    15   ar
    15    15    16    1
    16    15    17   ar
    17    17    10   ar
    18    17     3    1
    19     1    18    1
    20     1    19    1
    21     1    20    1
    22     2    21    1
    23     2    22    1
    24     5    23    1
    25     5    24    1
    26     6    25    1
    27     6    26    1
    28     7    27    1
    29     7    28    1
    30     8    29    1
    31    11    30    1
    32    12    31    1
