@<TRIPOS>MOLECULE

  49   54
SMALL
USER_CHARGES
@<TRIPOS>ATOM
   1 O1           1.3854    -0.3581     1.1529 O.3          1    LIG   0.0000
   2 C2           1.0000     1.0000     1.0000 C.3          1    LIG   0.0000
   3 C3           1.8770     1.8770     1.8770 C.2          1    LIG   0.0000
   4 N4           1.6330     2.2161     3.1173 N.2          1    LIG   0.0000
   5 N5           2.6066     2.9809     3.5592 N.2          1    LIG   0.0000
   6 C6           3.4879     3.1386     2.5996 C.2          1    LIG   0.0000
   7 N7           3.0581     2.4482     1.5223 N.pl3        1    LIG   0.0000
   8 C8           3.8180     2.3811     0.2689 C.3          1    LIG   0.0000
   9 C9           5.2503     2.1298     0.7093 C.3          1    LIG   0.0000
  10 N10          5.7197     3.0920     1.7198 N.pl3        1    LIG   0.0000
  11 C11          7.0976     3.2358     1.9229 C.ar         1    LIG   0.0000
  12 N12          7.7652     2.1395     2.3135 N.ar         1    LIG   0.0000
  13 C13          9.0881     2.1640     2.5383 C.ar         1    LIG   0.0000
  14 C14          9.8366     0.9956     2.9583 C.2          1    LIG   0.0000
  15 C15          9.2941    -0.2984     3.1855 C.2          1    LIG   0.0000
  16 C16         10.1735    -1.2633     3.5780 C.2          1    LIG   0.0000
  17 S17         11.6748    -0.4590     3.6401 S.3          1    LIG   0.0000
  18 C18         11.1793     1.0982     3.1644 C.2          1    LIG   0.0000
  19 N19          9.7906     3.2882     2.3796 N.ar         1    LIG   0.0000
  20 C20          9.0905     4.3552     1.9939 C.ar         1    LIG   0.0000
  21 S21          9.7716     5.8909     1.7244 S.3          1    LIG   0.0000
  22 C22          8.3372     6.7023     1.2794 C.2          1    LIG   0.0000
  23 C23          7.3457     5.7652     1.3365 C.2          1    LIG   0.0000
  24 C24          5.9953     6.1724     0.9988 C.ar         1    LIG   0.0000
  25 C25          5.2570     5.4214     0.0900 C.ar         1    LIG   0.0000
  26 C26          3.9630     5.8196    -0.2287 C.ar         1    LIG   0.0000
  27 C27          3.4200     6.9578     0.3596 C.ar         1    LIG   0.0000
  28 C28          4.1654     7.7027     1.2676 C.ar         1    LIG   0.0000
  29 C29          5.4608     7.3117     1.5914 C.ar         1    LIG   0.0000
  30 C30          7.7436     4.4527     1.7352 C.ar         1    LIG   0.0000
  31 C31          4.7978     3.9059     2.5262 C.3          1    LIG   0.0000
  32 H            0.8080    -0.9355     0.5756 H            1    LIG   0.0000
  33 H            0.0436     1.1077     1.2714 H            1    LIG   0.0000
  34 H            1.1077     1.2714     0.0436 H            1    LIG   0.0000
  35 H            3.7483     3.2427    -0.2339 H            1    LIG   0.0000
  36 H            3.4878     1.6322    -0.3056 H            1    LIG   0.0000
  37 H            5.3080     1.2090     1.0952 H            1    LIG   0.0000
  38 H            5.8456     2.1933    -0.0917 H            1    LIG   0.0000
  39 H            8.3203    -0.4906     3.0640 H            1    LIG   0.0000
  40 H            9.9816    -2.2231     3.7827 H            1    LIG   0.0000
  41 H           11.7502     1.9123     3.0589 H            1    LIG   0.0000
  42 H            8.2426     7.6656     1.0285 H            1    LIG   0.0000
  43 H            5.6523     4.6042    -0.3296 H            1    LIG   0.0000
  44 H            3.4228     5.2878    -0.8809 H            1    LIG   0.0000
  45 H            2.4893     7.2416     0.1285 H            1    LIG   0.0000
  46 H            3.7701     8.5195     1.6878 H            1    LIG   0.0000
  47 H            6.0015     7.8437     2.2430 H            1    LIG   0.0000
  48 H            4.6526     4.7947     2.0916 H            1    LIG   0.0000
  49 H            5.1702     4.0406     3.4444 H            1    LIG   0.0000
@<TRIPOS>BOND
   1        1        2 1
   2        2        3 1
   3        3        4 2
   4        4        5 1
   5        5        6 2
   6        6        7 1
   7        7        3 1
   8        7        8 1
   9        8        9 1
  10        9       10 1
  11       10       11 1
  12       11       12 ar
  13       12       13 ar
  14       13       14 1
  15       14       15 1
  16       15       16 2
  17       16       17 1
  18       17       18 1
  19       18       14 2
  20       13       19 ar
  21       19       20 ar
  22       20       21 1
  23       21       22 1
  24       22       23 2
  25       23       24 1
  26       24       25 ar
  27       25       26 ar
  28       26       27 ar
  29       27       28 ar
  30       28       29 ar
  31       29       24 ar
  32       23       30 1
  33       30       11 ar
  34       30       20 ar
  35       10       31 1
  36       31        6 1
  37        1       32 1
  38        2       33 1
  39        2       34 1
  40        8       35 1
  41        8       36 1
  42        9       37 1
  43        9       38 1
  44       15       39 1
  45       16       40 1
  46       18       41 1
  47       22       42 1
  48       25       43 1
  49       26       44 1
  50       27       45 1
  51       28       46 1
  52       29       47 1
  53       31       48 1
  54       31       49 1

@<TRIPOS>MOLECULE

  49   54
SMALL
USER_CHARGES
@<TRIPOS>ATOM
   1 O1           1.3854    -0.3581     1.1529 O.3          1    LIG   0.0000
   2 C2           1.0000     1.0000     1.0000 C.3          1    LIG   0.0000
   3 C3           1.8770     1.8770     1.8770 C.2          1    LIG   0.0000
   4 N4           1.6330     2.2161     3.1173 N.2          1    LIG   0.0000
   5 N5           2.6066     2.9809     3.5592 N.2          1    LIG   0.0000
   6 C6           3.4879     3.1386     2.5996 C.2          1    LIG   0.0000
   7 N7           3.0581     2.4482     1.5223 N.pl3        1    LIG   0.0000
   8 C8           3.8180     2.3811     0.2689 C.3          1    LIG   0.0000
   9 C9           5.2503     2.1298     0.7093 C.3          1    LIG   0.0000
  10 N10          5.7197     3.0920     1.7198 N.pl3        1    LIG   0.0000
  11 C11          7.0976     3.2358     1.9229 C.ar         1    LIG   0.0000
  12 N12          7.7652     2.1395     2.3135 N.ar         1    LIG   0.0000
  13 C13          9.0881     2.1640     2.5383 C.ar         1    LIG   0.0000
  14 C14          9.8366     0.9956     2.9583 C.2          1    LIG   0.0000
  15 C15         11.2347     0.9539     3.2113 C.2          1    LIG   0.0000
  16 C16         11.7444    -0.2497     3.5983 C.2          1    LIG   0.0000
  17 S17         10.3926    -1.2875     3.6201 S.3          1    LIG   0.0000
  18 C18          9.1859    -0.1872     3.1406 C.2          1    LIG   0.0000
  19 N19          9.7906     3.2882     2.3796 N.ar         1    LIG   0.0000
  20 C20          9.0905     4.3552     1.9939 C.ar         1    LIG   0.0000
  21 S21          9.7716     5.8909     1.7244 S.3          1    LIG   0.0000
  22 C22          8.3372     6.7023     1.2794 C.2          1    LIG   0.0000
  23 C23          7.3457     5.7652     1.3365 C.2          1    LIG   0.0000
  24 C24          5.9953     6.1724     0.9988 C.ar         1    LIG   0.0000
  25 C25          5.2570     5.4214     0.0900 C.ar         1    LIG   0.0000
  26 C26          3.9630     5.8196    -0.2287 C.ar         1    LIG   0.0000
  27 C27          3.4200     6.9578     0.3596 C.ar         1    LIG   0.0000
  28 C28          4.1654     7.7027     1.2676 C.ar         1    LIG   0.0000
  29 C29          5.4608     7.3117     1.5914 C.ar         1    LIG   0.0000
  30 C30          7.7436     4.4527     1.7352 C.ar         1    LIG   0.0000
  31 C31          4.7978     3.9059     2.5262 C.3          1    LIG   0.0000
  32 H            0.8080    -0.9355     0.5756 H            1    LIG   0.0000
  33 H            0.0436     1.1077     1.2714 H            1    LIG   0.0000
  34 H            1.1077     1.2714     0.0436 H            1    LIG   0.0000
  35 H            3.7483     3.2427    -0.2339 H            1    LIG   0.0000
  36 H            3.4878     1.6322    -0.3056 H            1    LIG   0.0000
  37 H            5.3080     1.2090     1.0952 H            1    LIG   0.0000
  38 H            5.8456     2.1933    -0.0917 H            1    LIG   0.0000
  39 H           11.8130     1.7635     3.1108 H            1    LIG   0.0000
  40 H           12.6939    -0.4727     3.8188 H            1    LIG   0.0000
  41 H            8.2103    -0.3697     3.0189 H            1    LIG   0.0000
  42 H            8.2426     7.6656     1.0285 H            1    LIG   0.0000
  43 H            5.6523     4.6042    -0.3296 H            1    LIG   0.0000
  44 H            3.4228     5.2878    -0.8809 H            1    LIG   0.0000
  45 H            2.4893     7.2416     0.1285 H            1    LIG   0.0000
  46 H            3.7701     8.5195     1.6878 H            1    LIG   0.0000
  47 H            6.0015     7.8437     2.2430 H            1    LIG   0.0000
  48 H            4.6526     4.7947     2.0916 H            1    LIG   0.0000
  49 H            5.1702     4.0406     3.4444 H            1    LIG   0.0000
@<TRIPOS>BOND
   1        1        2 1
   2        2        3 1
   3        3        4 2
   4        4        5 1
   5        5        6 2
   6        6        7 1
   7        7        3 1
   8        7        8 1
   9        8        9 1
  10        9       10 1
  11       10       11 1
  12       11       12 ar
  13       12       13 ar
  14       13       14 1
  15       14       15 1
  16       15       16 2
  17       16       17 1
  18       17       18 1
  19       18       14 2
  20       13       19 ar
  21       19       20 ar
  22       20       21 1
  23       21       22 1
  24       22       23 2
  25       23       24 1
  26       24       25 ar
  27       25       26 ar
  28       26       27 ar
  29       27       28 ar
  30       28       29 ar
  31       29       24 ar
  32       23       30 1
  33       30       11 ar
  34       30       20 ar
  35       10       31 1
  36       31        6 1
  37        1       32 1
  38        2       33 1
  39        2       34 1
  40        8       35 1
  41        8       36 1
  42        9       37 1
  43        9       38 1
  44       15       39 1
  45       16       40 1
  46       18       41 1
  47       22       42 1
  48       25       43 1
  49       26       44 1
  50       27       45 1
  51       28       46 1
  52       29       47 1
  53       31       48 1
  54       31       49 1

@<TRIPOS>MOLECULE

  49   54
SMALL
USER_CHARGES
@<TRIPOS>ATOM
   1 O1           1.3854    -0.3581     1.1529 O.3          1    LIG   0.0000
   2 C2           1.0000     1.0000     1.0000 C.3          1    LIG   0.0000
   3 C3           1.8770     1.8770     1.8770 C.2          1    LIG   0.0000
   4 N4           3.0113     2.4281     1.5269 N.2          1    LIG   0.0000
   5 N5           3.4912     3.1168     2.5386 N.2          1    LIG   0.0000
   6 C6           2.6629     3.0121     3.5511 C.2          1    LIG   0.0000
   7 N7           1.6276     2.2375     3.1634 N.pl3        1    LIG   0.0000
   8 C8           0.4940     1.9309     4.0431 C.3          1    LIG   0.0000
   9 C9           0.1426     3.2631     4.6836 C.3          1    LIG   0.0000
  10 N10          1.3013     3.9290     5.3012 N.pl3        1    LIG   0.0000
  11 C11          1.0733     4.9351     6.2480 C.ar         1    LIG   0.0000
  12 N12          0.3803     6.0060     5.8320 N.ar         1    LIG   0.0000
  13 C13          0.1055     7.0296     6.6553 C.ar         1    LIG   0.0000
  14 C14         -0.6429     8.1980     6.2354 C.2          1    LIG   0.0000
  15 C15         -1.1733     8.4192     4.9353 C.2          1    LIG   0.0000
  16 C16         -1.8480     9.5888     4.7475 C.2          1    LIG   0.0000
  17 S17         -1.7708    10.3629     6.2639 S.3          1    LIG   0.0000
  18 C18         -0.8847     9.1964     7.1302 C.2          1    LIG   0.0000
  19 N19          0.5150     7.0174     7.9260 N.ar         1    LIG   0.0000
  20 C20          1.2026     5.9379     8.2991 C.ar         1    LIG   0.0000
  21 S21          1.8197     5.7004     9.8668 S.3          1    LIG   0.0000
  22 C22          2.5420     4.1770     9.5999 C.2          1    LIG   0.0000
  23 C23          2.2859     3.8664     8.2950 C.2          1    LIG   0.0000
  24 C24          2.7823     2.6053     7.7789 C.ar         1    LIG   0.0000
  25 C25          1.9219     1.7576     7.0890 C.ar         1    LIG   0.0000
  26 C26          2.4062     0.5497     6.5980 C.ar         1    LIG   0.0000
  27 C27          3.7383     0.2004     6.7986 C.ar         1    LIG   0.0000
  28 C28          4.5917     1.0545     7.4895 C.ar         1    LIG   0.0000
  29 C29          4.1151     2.2642     7.9845 C.ar         1    LIG   0.0000
  30 C30          1.5440     4.8350     7.5525 C.ar         1    LIG   0.0000
  31 C31          2.6888     3.5807     4.9604 C.3          1    LIG   0.0000
  32 H            0.8080    -0.9355     0.5756 H            1    LIG   0.0000
  33 H            0.0436     1.1077     1.2714 H            1    LIG   0.0000
  34 H            1.1077     1.2714     0.0436 H            1    LIG   0.0000
  35 H            0.7564     1.2620     4.7386 H            1    LIG   0.0000
  36 H           -0.2782     1.5774     3.5152 H            1    LIG   0.0000
  37 H           -0.2332     3.8658     3.9796 H            1    LIG   0.0000
  38 H           -0.5475     3.1048     5.3899 H            1    LIG   0.0000
  39 H           -1.0578     7.7531     4.1985 H            1    LIG   0.0000
  40 H           -2.2875     9.9172     3.9115 H            1    LIG   0.0000
  41 H           -0.6026     9.2353     8.0887 H            1    LIG   0.0000
  42 H            3.0486     3.6255    10.2626 H            1    LIG   0.0000
  43 H            0.9657     2.0137     6.9475 H            1    LIG   0.0000
  44 H            1.7970    -0.0680     6.1007 H            1    LIG   0.0000
  45 H            4.0836    -0.6686     6.4445 H            1    LIG   0.0000
  46 H            5.5481     0.7988     7.6305 H            1    LIG   0.0000
  47 H            4.7240     2.8817     8.4825 H            1    LIG   0.0000
  48 H            3.0400     2.8979     5.6010 H            1    LIG   0.0000
  49 H            3.2666     4.3962     4.9924 H            1    LIG   0.0000
@<TRIPOS>BOND
   1        1        2 1
   2        2        3 1
   3        3        4 2
   4        4        5 1
   5        5        6 2
   6        6        7 1
   7        7        3 1
   8        7        8 1
   9        8        9 1
  10        9       10 1
  11       10       11 1
  12       11       12 ar
  13       12       13 ar
  14       13       14 1
  15       14       15 1
  16       15       16 2
  17       16       17 1
  18       17       18 1
  19       18       14 2
  20       13       19 ar
  21       19       20 ar
  22       20       21 1
  23       21       22 1
  24       22       23 2
  25       23       24 1
  26       24       25 ar
  27       25       26 ar
  28       26       27 ar
  29       27       28 ar
  30       28       29 ar
  31       29       24 ar
  32       23       30 1
  33       30       11 ar
  34       30       20 ar
  35       10       31 1
  36       31        6 1
  37        1       32 1
  38        2       33 1
  39        2       34 1
  40        8       35 1
  41        8       36 1
  42        9       37 1
  43        9       38 1
  44       15       39 1
  45       16       40 1
  46       18       41 1
  47       22       42 1
  48       25       43 1
  49       26       44 1
  50       27       45 1
  51       28       46 1
  52       29       47 1
  53       31       48 1
  54       31       49 1

@<TRIPOS>MOLECULE

  49   54
SMALL
USER_CHARGES
@<TRIPOS>ATOM
   1 O1           1.3854    -0.3581     1.1529 O.3          1    LIG   0.0000
   2 C2           1.0000     1.0000     1.0000 C.3          1    LIG   0.0000
   3 C3           1.8770     1.8770     1.8770 C.2          1    LIG   0.0000
   4 N4           3.0113     2.4281     1.5269 N.2          1    LIG   0.0000
   5 N5           3.4912     3.1168     2.5386 N.2          1    LIG   0.0000
   6 C6           2.6629     3.0121     3.5511 C.2          1    LIG   0.0000
   7 N7           1.6276     2.2375     3.1634 N.pl3        1    LIG   0.0000
   8 C8           0.4940     1.9309     4.0431 C.3          1    LIG   0.0000
   9 C9           0.1426     3.2631     4.6836 C.3          1    LIG   0.0000
  10 N10          1.3013     3.9290     5.3012 N.pl3        1    LIG   0.0000
  11 C11          1.0733     4.9351     6.2480 C.ar         1    LIG   0.0000
  12 N12          0.3803     6.0060     5.8320 N.ar         1    LIG   0.0000
  13 C13          0.1055     7.0296     6.6553 C.ar         1    LIG   0.0000
  14 C14         -0.6429     8.1980     6.2354 C.2          1    LIG   0.0000
  15 C15         -0.9681     9.3127     7.0553 C.2          1    LIG   0.0000
  16 C16         -1.6824    10.3117     6.4637 C.2          1    LIG   0.0000
  17 S17         -1.9091     9.7710     4.8634 S.3          1    LIG   0.0000
  18 C18         -1.0931     8.2801     4.9523 C.2          1    LIG   0.0000
  19 N19          0.5150     7.0174     7.9260 N.ar         1    LIG   0.0000
  20 C20          1.2026     5.9379     8.2991 C.ar         1    LIG   0.0000
  21 S21          1.8197     5.7004     9.8668 S.3          1    LIG   0.0000
  22 C22          2.5420     4.1770     9.5999 C.2          1    LIG   0.0000
  23 C23          2.2859     3.8664     8.2950 C.2          1    LIG   0.0000
  24 C24          2.7823     2.6053     7.7789 C.ar         1    LIG   0.0000
  25 C25          1.9219     1.7576     7.0890 C.ar         1    LIG   0.0000
  26 C26          2.4062     0.5497     6.5980 C.ar         1    LIG   0.0000
  27 C27          3.7383     0.2004     6.7986 C.ar         1    LIG   0.0000
  28 C28          4.5917     1.0545     7.4895 C.ar         1    LIG   0.0000
  29 C29          4.1151     2.2642     7.9845 C.ar         1    LIG   0.0000
  30 C30          1.5440     4.8350     7.5525 C.ar         1    LIG   0.0000
  31 C31          2.6888     3.5807     4.9604 C.3          1    LIG   0.0000
  32 H            0.8080    -0.9355     0.5756 H            1    LIG   0.0000
  33 H            0.0436     1.1077     1.2714 H            1    LIG   0.0000
  34 H            1.1077     1.2714     0.0436 H            1    LIG   0.0000
  35 H            0.7564     1.2620     4.7386 H            1    LIG   0.0000
  36 H           -0.2782     1.5774     3.5152 H            1    LIG   0.0000
  37 H           -0.2332     3.8658     3.9796 H            1    LIG   0.0000
  38 H           -0.5475     3.1048     5.3899 H            1    LIG   0.0000
  39 H           -0.6881     9.3614     8.0141 H            1    LIG   0.0000
  40 H           -2.0005    11.1661     6.8746 H            1    LIG   0.0000
  41 H           -0.9706     7.6094     4.2208 H            1    LIG   0.0000
  42 H            3.0486     3.6255    10.2626 H            1    LIG   0.0000
  43 H            0.9657     2.0137     6.9475 H            1    LIG   0.0000
  44 H            1.7970    -0.0680     6.1007 H            1    LIG   0.0000
  45 H            4.0836    -0.6686     6.4445 H            1    LIG   0.0000
  46 H            5.5481     0.7988     7.6305 H            1    LIG   0.0000
  47 H            4.7240     2.8817     8.4825 H            1    LIG   0.0000
  48 H            3.0400     2.8979     5.6010 H            1    LIG   0.0000
  49 H            3.2666     4.3962     4.9924 H            1    LIG   0.0000
@<TRIPOS>BOND
   1        1        2 1
   2        2        3 1
   3        3        4 2
   4        4        5 1
   5        5        6 2
   6        6        7 1
   7        7        3 1
   8        7        8 1
   9        8        9 1
  10        9       10 1
  11       10       11 1
  12       11       12 ar
  13       12       13 ar
  14       13       14 1
  15       14       15 1
  16       15       16 2
  17       16       17 1
  18       17       18 1
  19       18       14 2
  20       13       19 ar
  21       19       20 ar
  22       20       21 1
  23       21       22 1
  24       22       23 2
  25       23       24 1
  26       24       25 ar
  27       25       26 ar
  28       26       27 ar
  29       27       28 ar
  30       28       29 ar
  31       29       24 ar
  32       23       30 1
  33       30       11 ar
  34       30       20 ar
  35       10       31 1
  36       31        6 1
  37        1       32 1
  38        2       33 1
  39        2       34 1
  40        8       35 1
  41        8       36 1
  42        9       37 1
  43        9       38 1
  44       15       39 1
  45       16       40 1
  46       18       41 1
  47       22       42 1
  48       25       43 1
  49       26       44 1
  50       27       45 1
  51       28       46 1
  52       29       47 1
  53       31       48 1
  54       31       49 1

@<TRIPOS>MOLECULE

  49   54
SMALL
USER_CHARGES
@<TRIPOS>ATOM
   1 O1           1.3854    -0.3581     1.1529 O.3          1    LIG   0.0000
   2 C2           1.0000     1.0000     1.0000 C.3          1    LIG   0.0000
   3 C3           1.8785     1.8785     1.8785 C.2          1    LIG   0.0000
   4 N4           1.6034     2.1997     3.1212 N.2          1    LIG   0.0000
   5 N5           2.5841     2.9536     3.5632 N.2          1    LIG   0.0000
   6 C6           3.4704     3.1339     2.6106 C.2          1    LIG   0.0000
   7 N7           3.0698     2.4360     1.5190 N.pl3        1    LIG   0.0000
   8 C8           3.8891     2.3672     0.2960 C.3          1    LIG   0.0000
   9 C9           4.9735     3.4405     0.1904 C.3          1    LIG   0.0000
  10 N10          5.6291     3.6729     1.4827 N.pl3        1    LIG   0.0000
  11 C11          7.0242     3.6491     1.6003 C.ar         1    LIG   0.0000
  12 N12          7.6338     2.4946     1.2911 N.ar         1    LIG   0.0000
  13 C13          8.9668     2.3597     1.3694 C.ar         1    LIG   0.0000
  14 C14          9.6535     1.1263     1.0395 C.2          1    LIG   0.0000
  15 C15          9.0337    -0.0758     0.6020 C.2          1    LIG   0.0000
  16 C16          9.8638    -1.1258     0.3436 C.2          1    LIG   0.0000
  17 S17         11.4208    -0.5185     0.6778 S.3          1    LIG   0.0000
  18 C18         11.0106     1.0669     1.1413 C.2          1    LIG   0.0000
  19 N19          9.7378     3.3771     1.7604 N.ar         1    LIG   0.0000
  20 C20          9.0940     4.5050     2.0615 C.ar         1    LIG   0.0000
  21 S21          9.8666     5.9304     2.5773 S.3          1    LIG   0.0000
  22 C22          8.4696     6.8935     2.7628 C.2          1    LIG   0.0000
  23 C23          7.4179     6.0965     2.4116 C.2          1    LIG   0.0000
  24 C24          6.0819     6.6578     2.4673 C.ar         1    LIG   0.0000
  25 C25          5.2328     6.5238     1.3736 C.ar         1    LIG   0.0000
  26 C26          3.9534     7.0659     1.4354 C.ar         1    LIG   0.0000
  27 C27          3.5347     7.7333     2.5824 C.ar         1    LIG   0.0000
  28 C28          4.3903     7.8624     3.6716 C.ar         1    LIG   0.0000
  29 C29          5.6719     7.3237     3.6178 C.ar         1    LIG   0.0000
  30 C30          7.7439     4.7620     2.0208 C.ar         1    LIG   0.0000
  31 C31          4.7592     3.9536     2.6377 C.3          1    LIG   0.0000
  32 H            0.8080    -0.9355     0.5756 H            1    LIG   0.0000
  33 H            0.0436     1.1077     1.2714 H            1    LIG   0.0000
  34 H            1.1077     1.2714     0.0436 H            1    LIG   0.0000
  35 H            3.2806     2.4609    -0.4920 H            1    LIG   0.0000
  36 H            4.3337     1.4718     0.2692 H            1    LIG   0.0000
  37 H            5.6601     3.1442    -0.4735 H            1    LIG   0.0000
  38 H            4.5561     4.2944    -0.1203 H            1    LIG   0.0000
  39 H            8.0426    -0.1474     0.4899 H            1    LIG   0.0000
  40 H            9.6160    -2.0423     0.0298 H            1    LIG   0.0000
  41 H           11.6316     1.7969     1.4266 H            1    LIG   0.0000
  42 H            8.4295     7.8455     3.0663 H            1    LIG   0.0000
  43 H            5.5390     6.0429     0.5520 H            1    LIG   0.0000
  44 H            3.3343     6.9760     0.6553 H            1    LIG   0.0000
  45 H            2.6142     8.1220     2.6239 H            1    LIG   0.0000
  46 H            4.0841     8.3427     4.4936 H            1    LIG   0.0000
  47 H            6.2915     7.4141     4.3975 H            1    LIG   0.0000
  48 H            4.5219     4.9251     2.6321 H            1    LIG   0.0000
  49 H            5.2595     3.7375     3.4762 H            1    LIG   0.0000
@<TRIPOS>BOND
   1        1        2 1
   2        2        3 1
   3        3        4 2
   4        4        5 1
   5        5        6 2
   6        6        7 1
   7        7        3 1
   8        7        8 1
   9        8        9 1
  10        9       10 1
  11       10       11 1
  12       11       12 ar
  13       12       13 ar
  14       13       14 1
  15       14       15 1
  16       15       16 2
  17       16       17 1
  18       17       18 1
  19       18       14 2
  20       13       19 ar
  21       19       20 ar
  22       20       21 1
  23       21       22 1
  24       22       23 2
  25       23       24 1
  26       24       25 ar
  27       25       26 ar
  28       26       27 ar
  29       27       28 ar
  30       28       29 ar
  31       29       24 ar
  32       23       30 1
  33       30       11 ar
  34       30       20 ar
  35       10       31 1
  36       31        6 1
  37        1       32 1
  38        2       33 1
  39        2       34 1
  40        8       35 1
  41        8       36 1
  42        9       37 1
  43        9       38 1
  44       15       39 1
  45       16       40 1
  46       18       41 1
  47       22       42 1
  48       25       43 1
  49       26       44 1
  50       27       45 1
  51       28       46 1
  52       29       47 1
  53       31       48 1
  54       31       49 1

@<TRIPOS>MOLECULE

  49   54
SMALL
USER_CHARGES
@<TRIPOS>ATOM
   1 O1           1.3854    -0.3581     1.1529 O.3          1    LIG   0.0000
   2 C2           1.0000     1.0000     1.0000 C.3          1    LIG   0.0000
   3 C3           1.8785     1.8785     1.8785 C.2          1    LIG   0.0000
   4 N4           1.6034     2.1997     3.1212 N.2          1    LIG   0.0000
   5 N5           2.5841     2.9536     3.5632 N.2          1    LIG   0.0000
   6 C6           3.4704     3.1339     2.6106 C.2          1    LIG   0.0000
   7 N7           3.0698     2.4360     1.5190 N.pl3        1    LIG   0.0000
   8 C8           3.8891     2.3672     0.2960 C.3          1    LIG   0.0000
   9 C9           4.9735     3.4405     0.1904 C.3          1    LIG   0.0000
  10 N10          5.6291     3.6729     1.4827 N.pl3        1    LIG   0.0000
  11 C11          7.0242     3.6491     1.6003 C.ar         1    LIG   0.0000
  12 N12          7.6338     2.4946     1.2911 N.ar         1    LIG   0.0000
  13 C13          8.9668     2.3597     1.3694 C.ar         1    LIG   0.0000
  14 C14          9.6535     1.1263     1.0395 C.2          1    LIG   0.0000
  15 C15         11.0583     0.9182     1.0999 C.2          1    LIG   0.0000
  16 C16         11.5027    -0.3210     0.7460 C.2          1    LIG   0.0000
  17 S17         10.0829    -1.1746     0.3459 S.3          1    LIG   0.0000
  18 C18          8.9313     0.0452     0.6327 C.2          1    LIG   0.0000
  19 N19          9.7378     3.3771     1.7604 N.ar         1    LIG   0.0000
  20 C20          9.0940     4.5050     2.0615 C.ar         1    LIG   0.0000
  21 S21          9.8666     5.9304     2.5773 S.3          1    LIG   0.0000
  22 C22          8.4696     6.8935     2.7628 C.2          1    LIG   0.0000
  23 C23          7.4179     6.0965     2.4116 C.2          1    LIG   0.0000
  24 C24          6.0819     6.6578     2.4673 C.ar         1    LIG   0.0000
  25 C25          5.2328     6.5238     1.3736 C.ar         1    LIG   0.0000
  26 C26          3.9534     7.0659     1.4354 C.ar         1    LIG   0.0000
  27 C27          3.5347     7.7333     2.5824 C.ar         1    LIG   0.0000
  28 C28          4.3903     7.8624     3.6716 C.ar         1    LIG   0.0000
  29 C29          5.6719     7.3237     3.6178 C.ar         1    LIG   0.0000
  30 C30          7.7439     4.7620     2.0208 C.ar         1    LIG   0.0000
  31 C31          4.7592     3.9536     2.6377 C.3          1    LIG   0.0000
  32 H            0.8080    -0.9355     0.5756 H            1    LIG   0.0000
  33 H            0.0436     1.1077     1.2714 H            1    LIG   0.0000
  34 H            1.1077     1.2714     0.0436 H            1    LIG   0.0000
  35 H            3.2806     2.4609    -0.4920 H            1    LIG   0.0000
  36 H            4.3337     1.4718     0.2692 H            1    LIG   0.0000
  37 H            5.6601     3.1442    -0.4735 H            1    LIG   0.0000
  38 H            4.5561     4.2944    -0.1203 H            1    LIG   0.0000
  39 H           11.6865     1.6416     1.3863 H            1    LIG   0.0000
  40 H           12.4457    -0.6530     0.7258 H            1    LIG   0.0000
  41 H            7.9390    -0.0180     0.5258 H            1    LIG   0.0000
  42 H            8.4295     7.8455     3.0663 H            1    LIG   0.0000
  43 H            5.5390     6.0429     0.5520 H            1    LIG   0.0000
  44 H            3.3343     6.9760     0.6553 H            1    LIG   0.0000
  45 H            2.6142     8.1220     2.6239 H            1    LIG   0.0000
  46 H            4.0841     8.3427     4.4936 H            1    LIG   0.0000
  47 H            6.2915     7.4141     4.3975 H            1    LIG   0.0000
  48 H            4.5219     4.9251     2.6321 H            1    LIG   0.0000
  49 H            5.2595     3.7375     3.4762 H            1    LIG   0.0000
@<TRIPOS>BOND
   1        1        2 1
   2        2        3 1
   3        3        4 2
   4        4        5 1
   5        5        6 2
   6        6        7 1
   7        7        3 1
   8        7        8 1
   9        8        9 1
  10        9       10 1
  11       10       11 1
  12       11       12 ar
  13       12       13 ar
  14       13       14 1
  15       14       15 1
  16       15       16 2
  17       16       17 1
  18       17       18 1
  19       18       14 2
  20       13       19 ar
  21       19       20 ar
  22       20       21 1
  23       21       22 1
  24       22       23 2
  25       23       24 1
  26       24       25 ar
  27       25       26 ar
  28       26       27 ar
  29       27       28 ar
  30       28       29 ar
  31       29       24 ar
  32       23       30 1
  33       30       11 ar
  34       30       20 ar
  35       10       31 1
  36       31        6 1
  37        1       32 1
  38        2       33 1
  39        2       34 1
  40        8       35 1
  41        8       36 1
  42        9       37 1
  43        9       38 1
  44       15       39 1
  45       16       40 1
  46       18       41 1
  47       22       42 1
  48       25       43 1
  49       26       44 1
  50       27       45 1
  51       28       46 1
  52       29       47 1
  53       31       48 1
  54       31       49 1

@<TRIPOS>MOLECULE

  49   54
SMALL
USER_CHARGES
@<TRIPOS>ATOM
   1 O1           1.3854    -0.3581     1.1529 O.3          1    LIG   0.0000
   2 C2           1.0000     1.0000     1.0000 C.3          1    LIG   0.0000
   3 C3           1.8785     1.8785     1.8785 C.2          1    LIG   0.0000
   4 N4           1.6034     2.1997     3.1212 N.2          1    LIG   0.0000
   5 N5           2.5841     2.9536     3.5632 N.2          1    LIG   0.0000
   6 C6           3.4704     3.1339     2.6106 C.2          1    LIG   0.0000
   7 N7           3.0698     2.4360     1.5190 N.pl3        1    LIG   0.0000
   8 C8           3.8891     2.3672     0.2960 C.3          1    LIG   0.0000
   9 C9           4.9735     3.4405     0.1904 C.3          1    LIG   0.0000
  10 N10          5.6291     3.6729     1.4827 N.pl3        1    LIG   0.0000
  11 C11          7.0242     3.6491     1.6003 C.ar         1    LIG   0.0000
  12 N12          7.5398     2.7555     2.4581 N.ar         1    LIG   0.0000
  13 C13          8.8637     2.6473     2.6502 C.ar         1    LIG   0.0000
  14 C14          9.4499     1.6902     3.5678 C.2          1    LIG   0.0000
  15 C15          8.7304     0.7622     4.3688 C.2          1    LIG   0.0000
  16 C16          9.4754    -0.0532     5.1678 C.2          1    LIG   0.0000
  17 S17         11.0846     0.4122     4.8539 S.3          1    LIG   0.0000
  18 C18         10.8040     1.6380     3.7071 C.2          1    LIG   0.0000
  19 N19          9.7194     3.4306     1.9894 N.ar         1    LIG   0.0000
  20 C20          9.1675     4.3066     1.1495 C.ar         1    LIG   0.0000
  21 S21         10.0581     5.4014     0.1992 S.3          1    LIG   0.0000
  22 C22          8.7386     6.1566    -0.5769 C.2          1    LIG   0.0000
  23 C23          7.6197     5.5406    -0.0940 C.2          1    LIG   0.0000
  24 C24          6.3278     5.9779    -0.5869 C.ar         1    LIG   0.0000
  25 C25          5.3164     6.2899     0.3156 C.ar         1    LIG   0.0000
  26 C26          4.0803     6.7078    -0.1659 C.ar         1    LIG   0.0000
  27 C27          3.8656     6.8104    -1.5370 C.ar         1    LIG   0.0000
  28 C28          4.8829     6.4966    -2.4324 C.ar         1    LIG   0.0000
  29 C29          6.1221     6.0772    -1.9591 C.ar         1    LIG   0.0000
  30 C30          7.8366     4.5097     0.8705 C.ar         1    LIG   0.0000
  31 C31          4.7592     3.9536     2.6377 C.3          1    LIG   0.0000
  32 H            0.8080    -0.9355     0.5756 H            1    LIG   0.0000
  33 H            0.0436     1.1077     1.2714 H            1    LIG   0.0000
  34 H            1.1077     1.2714     0.0436 H            1    LIG   0.0000
  35 H            3.2806     2.4609    -0.4920 H            1    LIG   0.0000
  36 H            4.3337     1.4718     0.2692 H            1    LIG   0.0000
  37 H            5.6601     3.1442    -0.4735 H            1    LIG   0.0000
  38 H            4.5561     4.2944    -0.1203 H            1    LIG   0.0000
  39 H            7.7320     0.7102     4.3472 H            1    LIG   0.0000
  40 H            9.1518    -0.7620     5.7946 H            1    LIG   0.0000
  41 H           11.4858     2.1987     3.2371 H            1    LIG   0.0000
  42 H            8.7770     6.8976    -1.2473 H            1    LIG   0.0000
  43 H            5.4763     6.2146     1.2999 H            1    LIG   0.0000
  44 H            3.3455     6.9346     0.4734 H            1    LIG   0.0000
  45 H            2.9758     7.1112    -1.8803 H            1    LIG   0.0000
  46 H            4.7234     6.5725    -3.4167 H            1    LIG   0.0000
  47 H            6.8568     5.8496    -2.5982 H            1    LIG   0.0000
  48 H            4.5219     4.9251     2.6321 H            1    LIG   0.0000
  49 H            5.2595     3.7375     3.4762 H            1    LIG   0.0000
@<TRIPOS>BOND
   1        1        2 1
   2        2        3 1
   3        3        4 2
   4        4        5 1
   5        5        6 2
   6        6        7 1
   7        7        3 1
   8        7        8 1
   9        8        9 1
  10        9       10 1
  11       10       11 1
  12       11       12 ar
  13       12       13 ar
  14       13       14 1
  15       14       15 1
  16       15       16 2
  17       16       17 1
  18       17       18 1
  19       18       14 2
  20       13       19 ar
  21       19       20 ar
  22       20       21 1
  23       21       22 1
  24       22       23 2
  25       23       24 1
  26       24       25 ar
  27       25       26 ar
  28       26       27 ar
  29       27       28 ar
  30       28       29 ar
  31       29       24 ar
  32       23       30 1
  33       30       11 ar
  34       30       20 ar
  35       10       31 1
  36       31        6 1
  37        1       32 1
  38        2       33 1
  39        2       34 1
  40        8       35 1
  41        8       36 1
  42        9       37 1
  43        9       38 1
  44       15       39 1
  45       16       40 1
  46       18       41 1
  47       22       42 1
  48       25       43 1
  49       26       44 1
  50       27       45 1
  51       28       46 1
  52       29       47 1
  53       31       48 1
  54       31       49 1

@<TRIPOS>MOLECULE

  49   54
SMALL
USER_CHARGES
@<TRIPOS>ATOM
   1 O1           1.3854    -0.3581     1.1529 O.3          1    LIG   0.0000
   2 C2           1.0000     1.0000     1.0000 C.3          1    LIG   0.0000
   3 C3           1.8785     1.8785     1.8785 C.2          1    LIG   0.0000
   4 N4           1.6034     2.1997     3.1212 N.2          1    LIG   0.0000
   5 N5           2.5841     2.9536     3.5632 N.2          1    LIG   0.0000
   6 C6           3.4704     3.1339     2.6106 C.2          1    LIG   0.0000
   7 N7           3.0698     2.4360     1.5190 N.pl3        1    LIG   0.0000
   8 C8           3.8891     2.3672     0.2960 C.3          1    LIG   0.0000
   9 C9           4.9735     3.4405     0.1904 C.3          1    LIG   0.0000
  10 N10          5.6291     3.6729     1.4827 N.pl3        1    LIG   0.0000
  11 C11          7.0242     3.6491     1.6003 C.ar         1    LIG   0.0000
  12 N12          7.5398     2.7555     2.4581 N.ar         1    LIG   0.0000
  13 C13          8.8637     2.6473     2.6502 C.ar         1    LIG   0.0000
  14 C14          9.4499     1.6902     3.5678 C.2          1    LIG   0.0000
  15 C15         10.8397     1.5240     3.8159 C.2          1    LIG   0.0000
  16 C16         11.1827     0.5631     4.7198 C.2          1    LIG   0.0000
  17 S17          9.6906    -0.0935     5.2171 S.3          1    LIG   0.0000
  18 C18          8.6379     0.8575     4.2769 C.2          1    LIG   0.0000
  19 N19          9.7194     3.4306     1.9894 N.ar         1    LIG   0.0000
  20 C20          9.1675     4.3066     1.1495 C.ar         1    LIG   0.0000
  21 S21         10.0581     5.4014     0.1992 S.3          1    LIG   0.0000
  22 C22          8.7386     6.1566    -0.5769 C.2          1    LIG   0.0000
  23 C23          7.6197     5.5406    -0.0940 C.2          1    LIG   0.0000
  24 C24          6.3278     5.9779    -0.5869 C.ar         1    LIG   0.0000
  25 C25          5.3164     6.2899     0.3156 C.ar         1    LIG   0.0000
  26 C26          4.0803     6.7078    -0.1659 C.ar         1    LIG   0.0000
  27 C27          3.8656     6.8104    -1.5370 C.ar         1    LIG   0.0000
  28 C28          4.8829     6.4966    -2.4324 C.ar         1    LIG   0.0000
  29 C29          6.1221     6.0772    -1.9591 C.ar         1    LIG   0.0000
  30 C30          7.8366     4.5097     0.8705 C.ar         1    LIG   0.0000
  31 C31          4.7592     3.9536     2.6377 C.3          1    LIG   0.0000
  32 H            0.8080    -0.9355     0.5756 H            1    LIG   0.0000
  33 H            0.0436     1.1077     1.2714 H            1    LIG   0.0000
  34 H            1.1077     1.2714     0.0436 H            1    LIG   0.0000
  35 H            3.2806     2.4609    -0.4920 H            1    LIG   0.0000
  36 H            4.3337     1.4718     0.2692 H            1    LIG   0.0000
  37 H            5.6601     3.1442    -0.4735 H            1    LIG   0.0000
  38 H            4.5561     4.2944    -0.1203 H            1    LIG   0.0000
  39 H           11.5283     2.0818     3.3525 H            1    LIG   0.0000
  40 H           12.0998     0.3030     5.0220 H            1    LIG   0.0000
  41 H            7.6391     0.8143     4.2507 H            1    LIG   0.0000
  42 H            8.7770     6.8976    -1.2473 H            1    LIG   0.0000
  43 H            5.4763     6.2146     1.2999 H            1    LIG   0.0000
  44 H            3.3455     6.9346     0.4734 H            1    LIG   0.0000
  45 H            2.9758     7.1112    -1.8803 H            1    LIG   0.0000
  46 H            4.7234     6.5725    -3.4167 H            1    LIG   0.0000
  47 H            6.8568     5.8496    -2.5982 H            1    LIG   0.0000
  48 H            4.5219     4.9251     2.6321 H            1    LIG   0.0000
  49 H            5.2595     3.7375     3.4762 H            1    LIG   0.0000
@<TRIPOS>BOND
   1        1        2 1
   2        2        3 1
   3        3        4 2
   4        4        5 1
   5        5        6 2
   6        6        7 1
   7        7        3 1
   8        7        8 1
   9        8        9 1
  10        9       10 1
  11       10       11 1
  12       11       12 ar
  13       12       13 ar
  14       13       14 1
  15       14       15 1
  16       15       16 2
  17       16       17 1
  18       17       18 1
  19       18       14 2
  20       13       19 ar
  21       19       20 ar
  22       20       21 1
  23       21       22 1
  24       22       23 2
  25       23       24 1
  26       24       25 ar
  27       25       26 ar
  28       26       27 ar
  29       27       28 ar
  30       28       29 ar
  31       29       24 ar
  32       23       30 1
  33       30       11 ar
  34       30       20 ar
  35       10       31 1
  36       31        6 1
  37        1       32 1
  38        2       33 1
  39        2       34 1
  40        8       35 1
  41        8       36 1
  42        9       37 1
  43        9       38 1
  44       15       39 1
  45       16       40 1
  46       18       41 1
  47       22       42 1
  48       25       43 1
  49       26       44 1
  50       27       45 1
  51       28       46 1
  52       29       47 1
  53       31       48 1
  54       31       49 1

@<TRIPOS>MOLECULE

  49   54
SMALL
USER_CHARGES
@<TRIPOS>ATOM
   1 O1           1.3854    -0.3581     1.1529 O.3          1    LIG   0.0000
   2 C2           1.0000     1.0000     1.0000 C.3          1    LIG   0.0000
   3 C3           1.8785     1.8785     1.8785 C.2          1    LIG   0.0000
   4 N4           3.0128     2.4165     1.4950 N.2          1    LIG   0.0000
   5 N5           3.4832     3.1137     2.5041 N.2          1    LIG   0.0000
   6 C6           2.6729     3.0093     3.5327 C.2          1    LIG   0.0000
   7 N7           1.6134     2.2472     3.1642 N.pl3        1    LIG   0.0000
   8 C8           0.4791     2.0010     4.0722 C.3          1    LIG   0.0000
   9 C9           0.7627     2.2958     5.5459 C.3          1    LIG   0.0000
  10 N10          1.5607     3.5169     5.7071 N.pl3        1    LIG   0.0000
  11 C11          1.1582     4.5333     6.5821 C.ar         1    LIG   0.0000
  12 N12         -0.0208     5.1184     6.3219 N.ar         1    LIG   0.0000
  13 C13         -0.5029     6.1043     7.0945 C.ar         1    LIG   0.0000
  14 C14         -1.7740     6.7533     6.8400 C.2          1    LIG   0.0000
  15 C15         -2.6604     6.4491     5.7713 C.2          1    LIG   0.0000
  16 C16         -3.8094     7.1802     5.7108 C.2          1    LIG   0.0000
  17 S17         -3.7007     8.2386     7.0423 S.3          1    LIG   0.0000
  18 C18         -2.1981     7.7457     7.6712 C.2          1    LIG   0.0000
  19 N19          0.1791     6.5398     8.1564 N.ar         1    LIG   0.0000
  20 C20          1.3463     5.9353     8.3788 C.ar         1    LIG   0.0000
  21 S21          2.3829     6.3191     9.6723 S.3          1    LIG   0.0000
  22 C22          3.6144     5.1904     9.3211 C.2          1    LIG   0.0000
  23 C23          3.1994     4.5208     8.2057 C.2          1    LIG   0.0000
  24 C24          4.0561     3.4801     7.6707 C.ar         1    LIG   0.0000
  25 C25          3.5206     2.2297     7.3799 C.ar         1    LIG   0.0000
  26 C26          4.3497     1.2373     6.8677 C.ar         1    LIG   0.0000
  27 C27          5.6989     1.5003     6.6512 C.ar         1    LIG   0.0000
  28 C28          6.2259     2.7538     6.9446 C.ar         1    LIG   0.0000
  29 C29          5.4037     3.7519     7.4578 C.ar         1    LIG   0.0000
  30 C30          1.9406     4.9225     7.6637 C.ar         1    LIG   0.0000
  31 C31          2.8078     3.6134     4.9294 C.3          1    LIG   0.0000
  32 H            0.8080    -0.9355     0.5756 H            1    LIG   0.0000
  33 H            0.0436     1.1077     1.2714 H            1    LIG   0.0000
  34 H            1.1077     1.2714     0.0436 H            1    LIG   0.0000
  35 H            0.2190     1.0388     3.9917 H            1    LIG   0.0000
  36 H           -0.2839     2.5780     3.7806 H            1    LIG   0.0000
  37 H           -0.1062     2.4097     6.0274 H            1    LIG   0.0000
  38 H            1.2641     1.5257     5.9404 H            1    LIG   0.0000
  39 H           -2.4525     5.7375     5.1002 H            1    LIG   0.0000
  40 H           -4.5470     7.1113     5.0391 H            1    LIG   0.0000
  41 H           -1.7282     8.1065     8.4768 H            1    LIG   0.0000
  42 H            4.4647     5.0487     9.8279 H            1    LIG   0.0000
  43 H            2.5503     2.0463     7.5373 H            1    LIG   0.0000
  44 H            3.9761     0.3344     6.6551 H            1    LIG   0.0000
  45 H            6.2925     0.7848     6.2828 H            1    LIG   0.0000
  46 H            7.1961     2.9376     6.7867 H            1    LIG   0.0000
  47 H            5.7772     4.6546     7.6713 H            1    LIG   0.0000
  48 H            3.5308     3.1276     5.4206 H            1    LIG   0.0000
  49 H            3.0560     4.5779     4.8393 H            1    LIG   0.0000
@<TRIPOS>BOND
   1        1        2 1
   2        2        3 1
   3        3        4 2
   4        4        5 1
   5        5        6 2
   6        6        7 1
   7        7        3 1
   8        7        8 1
   9        8        9 1
  10        9       10 1
  11       10       11 1
  12       11       12 ar
  13       12       13 ar
  14       13       14 1
  15       14       15 1
  16       15       16 2
  17       16       17 1
  18       17       18 1
  19       18       14 2
  20       13       19 ar
  21       19       20 ar
  22       20       21 1
  23       21       22 1
  24       22       23 2
  25       23       24 1
  26       24       25 ar
  27       25       26 ar
  28       26       27 ar
  29       27       28 ar
  30       28       29 ar
  31       29       24 ar
  32       23       30 1
  33       30       11 ar
  34       30       20 ar
  35       10       31 1
  36       31        6 1
  37        1       32 1
  38        2       33 1
  39        2       34 1
  40        8       35 1
  41        8       36 1
  42        9       37 1
  43        9       38 1
  44       15       39 1
  45       16       40 1
  46       18       41 1
  47       22       42 1
  48       25       43 1
  49       26       44 1
  50       27       45 1
  51       28       46 1
  52       29       47 1
  53       31       48 1
  54       31       49 1

@<TRIPOS>MOLECULE

  49   54
SMALL
USER_CHARGES
@<TRIPOS>ATOM
   1 O1           1.3854    -0.3581     1.1529 O.3          1    LIG   0.0000
   2 C2           1.0000     1.0000     1.0000 C.3          1    LIG   0.0000
   3 C3           1.8785     1.8785     1.8785 C.2          1    LIG   0.0000
   4 N4           3.0128     2.4165     1.4950 N.2          1    LIG   0.0000
   5 N5           3.4832     3.1137     2.5041 N.2          1    LIG   0.0000
   6 C6           2.6729     3.0093     3.5327 C.2          1    LIG   0.0000
   7 N7           1.6134     2.2472     3.1642 N.pl3        1    LIG   0.0000
   8 C8           0.4791     2.0010     4.0722 C.3          1    LIG   0.0000
   9 C9           0.7627     2.2958     5.5459 C.3          1    LIG   0.0000
  10 N10          1.5607     3.5169     5.7071 N.pl3        1    LIG   0.0000
  11 C11          1.1582     4.5333     6.5821 C.ar         1    LIG   0.0000
  12 N12         -0.0208     5.1184     6.3219 N.ar         1    LIG   0.0000
  13 C13         -0.5029     6.1043     7.0945 C.ar         1    LIG   0.0000
  14 C14         -1.7740     6.7533     6.8400 C.2          1    LIG   0.0000
  15 C15         -2.3407     7.7994     7.6177 C.2          1    LIG   0.0000
  16 C16         -3.5509     8.2728     7.2058 C.2          1    LIG   0.0000
  17 S17         -3.9135     7.3441     5.8236 S.3          1    LIG   0.0000
  18 C18         -2.5251     6.3609     5.7734 C.2          1    LIG   0.0000
  19 N19          0.1791     6.5398     8.1564 N.ar         1    LIG   0.0000
  20 C20          1.3463     5.9353     8.3788 C.ar         1    LIG   0.0000
  21 S21          2.3829     6.3191     9.6723 S.3          1    LIG   0.0000
  22 C22          3.6144     5.1904     9.3211 C.2          1    LIG   0.0000
  23 C23          3.1994     4.5208     8.2057 C.2          1    LIG   0.0000
  24 C24          4.0561     3.4801     7.6707 C.ar         1    LIG   0.0000
  25 C25          3.5206     2.2297     7.3799 C.ar         1    LIG   0.0000
  26 C26          4.3497     1.2373     6.8677 C.ar         1    LIG   0.0000
  27 C27          5.6989     1.5003     6.6512 C.ar         1    LIG   0.0000
  28 C28          6.2259     2.7538     6.9446 C.ar         1    LIG   0.0000
  29 C29          5.4037     3.7519     7.4578 C.ar         1    LIG   0.0000
  30 C30          1.9406     4.9225     7.6637 C.ar         1    LIG   0.0000
  31 C31          2.8078     3.6134     4.9294 C.3          1    LIG   0.0000
  32 H            0.8080    -0.9355     0.5756 H            1    LIG   0.0000
  33 H            0.0436     1.1077     1.2714 H            1    LIG   0.0000
  34 H            1.1077     1.2714     0.0436 H            1    LIG   0.0000
  35 H            0.2190     1.0388     3.9917 H            1    LIG   0.0000
  36 H           -0.2839     2.5780     3.7806 H            1    LIG   0.0000
  37 H           -0.1062     2.4097     6.0274 H            1    LIG   0.0000
  38 H            1.2641     1.5257     5.9404 H            1    LIG   0.0000
  39 H           -1.8769     8.1681     8.4233 H            1    LIG   0.0000
  40 H           -4.1001     8.9987     7.6199 H            1    LIG   0.0000
  41 H           -2.3078     5.6492     5.1054 H            1    LIG   0.0000
  42 H            4.4647     5.0487     9.8279 H            1    LIG   0.0000
  43 H            2.5503     2.0463     7.5373 H            1    LIG   0.0000
  44 H            3.9761     0.3344     6.6551 H            1    LIG   0.0000
  45 H            6.2925     0.7848     6.2828 H            1    LIG   0.0000
  46 H            7.1961     2.9376     6.7867 H            1    LIG   0.0000
  47 H            5.7772     4.6546     7.6713 H            1    LIG   0.0000
  48 H            3.5308     3.1276     5.4206 H            1    LIG   0.0000
  49 H            3.0560     4.5779     4.8393 H            1    LIG   0.0000
@<TRIPOS>BOND
   1        1        2 1
   2        2        3 1
   3        3        4 2
   4        4        5 1
   5        5        6 2
   6        6        7 1
   7        7        3 1
   8        7        8 1
   9        8        9 1
  10        9       10 1
  11       10       11 1
  12       11       12 ar
  13       12       13 ar
  14       13       14 1
  15       14       15 1
  16       15       16 2
  17       16       17 1
  18       17       18 1
  19       18       14 2
  20       13       19 ar
  21       19       20 ar
  22       20       21 1
  23       21       22 1
  24       22       23 2
  25       23       24 1
  26       24       25 ar
  27       25       26 ar
  28       26       27 ar
  29       27       28 ar
  30       28       29 ar
  31       29       24 ar
  32       23       30 1
  33       30       11 ar
  34       30       20 ar
  35       10       31 1
  36       31        6 1
  37        1       32 1
  38        2       33 1
  39        2       34 1
  40        8       35 1
  41        8       36 1
  42        9       37 1
  43        9       38 1
  44       15       39 1
  45       16       40 1
  46       18       41 1
  47       22       42 1
  48       25       43 1
  49       26       44 1
  50       27       45 1
  51       28       46 1
  52       29       47 1
  53       31       48 1
  54       31       49 1

@<TRIPOS>MOLECULE

  49   54
SMALL
USER_CHARGES
@<TRIPOS>ATOM
   1 O1           1.3854    -0.3581     1.1529 O.3          1    LIG   0.0000
   2 C2           1.0000     1.0000     1.0000 C.3          1    LIG   0.0000
   3 C3           1.8785     1.8785     1.8785 C.2          1    LIG   0.0000
   4 N4           3.0128     2.4165     1.4950 N.2          1    LIG   0.0000
   5 N5           3.4832     3.1137     2.5041 N.2          1    LIG   0.0000
   6 C6           2.6729     3.0093     3.5327 C.2          1    LIG   0.0000
   7 N7           1.6134     2.2472     3.1642 N.pl3        1    LIG   0.0000
   8 C8           0.4791     2.0010     4.0722 C.3          1    LIG   0.0000
   9 C9           0.7627     2.2958     5.5459 C.3          1    LIG   0.0000
  10 N10          1.5607     3.5169     5.7071 N.pl3        1    LIG   0.0000
  11 C11          1.1582     4.5333     6.5821 C.ar         1    LIG   0.0000
  12 N12          0.9625     5.7468     6.0442 N.ar         1    LIG   0.0000
  13 C13          0.5771     6.7935     6.7906 C.ar         1    LIG   0.0000
  14 C14          0.3554     8.1150     6.2375 C.2          1    LIG   0.0000
  15 C15          0.5105     8.4787     4.8722 C.2          1    LIG   0.0000
  16 C16          0.2513     9.7798     4.5589 C.2          1    LIG   0.0000
  17 S17         -0.1841    10.4883     6.0465 S.3          1    LIG   0.0000
  18 C18         -0.0379     9.1281     7.0590 C.2          1    LIG   0.0000
  19 N19          0.3735     6.6623     8.1036 N.ar         1    LIG   0.0000
  20 C20          0.5815     5.4425     8.5995 C.ar         1    LIG   0.0000
  21 S21          0.3810     5.0377    10.2399 S.3          1    LIG   0.0000
  22 C22          0.8069     3.3889    10.1224 C.2          1    LIG   0.0000
  23 C23          1.0911     3.1703     8.8048 C.2          1    LIG   0.0000
  24 C24          1.4847     1.8346     8.3994 C.ar         1    LIG   0.0000
  25 C25          2.6316     1.6581     7.6323 C.ar         1    LIG   0.0000
  26 C26          3.0012     0.3736     7.2473 C.ar         1    LIG   0.0000
  27 C27          2.2271    -0.7177     7.6297 C.ar         1    LIG   0.0000
  28 C28          1.0818    -0.5319     8.3971 C.ar         1    LIG   0.0000
  29 C29          0.7047     0.7496     8.7859 C.ar         1    LIG   0.0000
  30 C30          0.9746     4.3015     7.9407 C.ar         1    LIG   0.0000
  31 C31          2.8078     3.6134     4.9294 C.3          1    LIG   0.0000
  32 H            0.8080    -0.9355     0.5756 H            1    LIG   0.0000
  33 H            0.0436     1.1077     1.2714 H            1    LIG   0.0000
  34 H            1.1077     1.2714     0.0436 H            1    LIG   0.0000
  35 H            0.2190     1.0388     3.9917 H            1    LIG   0.0000
  36 H           -0.2839     2.5780     3.7806 H            1    LIG   0.0000
  37 H           -0.1062     2.4097     6.0274 H            1    LIG   0.0000
  38 H            1.2641     1.5257     5.9404 H            1    LIG   0.0000
  39 H            0.7943     7.8161     4.1791 H            1    LIG   0.0000
  40 H            0.3045    10.2182     3.6617 H            1    LIG   0.0000
  41 H           -0.2047     9.0824     8.0439 H            1    LIG   0.0000
  42 H            0.8412     2.7207    10.8655 H            1    LIG   0.0000
  43 H            3.1842     2.4459     7.3606 H            1    LIG   0.0000
  44 H            3.8235     0.2344     6.6956 H            1    LIG   0.0000
  45 H            2.4954    -1.6400     7.3514 H            1    LIG   0.0000
  46 H            0.5294    -1.3197     8.6695 H            1    LIG   0.0000
  47 H           -0.1180     0.8892     9.3370 H            1    LIG   0.0000
  48 H            3.5308     3.1276     5.4206 H            1    LIG   0.0000
  49 H            3.0560     4.5779     4.8393 H            1    LIG   0.0000
@<TRIPOS>BOND
   1        1        2 1
   2        2        3 1
   3        3        4 2
   4        4        5 1
   5        5        6 2
   6        6        7 1
   7        7        3 1
   8        7        8 1
   9        8        9 1
  10        9       10 1
  11       10       11 1
  12       11       12 ar
  13       12       13 ar
  14       13       14 1
  15       14       15 1
  16       15       16 2
  17       16       17 1
  18       17       18 1
  19       18       14 2
  20       13       19 ar
  21       19       20 ar
  22       20       21 1
  23       21       22 1
  24       22       23 2
  25       23       24 1
  26       24       25 ar
  27       25       26 ar
  28       26       27 ar
  29       27       28 ar
  30       28       29 ar
  31       29       24 ar
  32       23       30 1
  33       30       11 ar
  34       30       20 ar
  35       10       31 1
  36       31        6 1
  37        1       32 1
  38        2       33 1
  39        2       34 1
  40        8       35 1
  41        8       36 1
  42        9       37 1
  43        9       38 1
  44       15       39 1
  45       16       40 1
  46       18       41 1
  47       22       42 1
  48       25       43 1
  49       26       44 1
  50       27       45 1
  51       28       46 1
  52       29       47 1
  53       31       48 1
  54       31       49 1

@<TRIPOS>MOLECULE

  49   54
SMALL
USER_CHARGES
@<TRIPOS>ATOM
   1 O1           1.3854    -0.3581     1.1529 O.3          1    LIG   0.0000
   2 C2           1.0000     1.0000     1.0000 C.3          1    LIG   0.0000
   3 C3           1.8785     1.8785     1.8785 C.2          1    LIG   0.0000
   4 N4           3.0128     2.4165     1.4950 N.2          1    LIG   0.0000
   5 N5           3.4832     3.1137     2.5041 N.2          1    LIG   0.0000
   6 C6           2.6729     3.0093     3.5327 C.2          1    LIG   0.0000
   7 N7           1.6134     2.2472     3.1642 N.pl3        1    LIG   0.0000
   8 C8           0.4791     2.0010     4.0722 C.3          1    LIG   0.0000
   9 C9           0.7627     2.2958     5.5459 C.3          1    LIG   0.0000
  10 N10          1.5607     3.5169     5.7071 N.pl3        1    LIG   0.0000
  11 C11          1.1582     4.5333     6.5821 C.ar         1    LIG   0.0000
  12 N12          0.9625     5.7468     6.0442 N.ar         1    LIG   0.0000
  13 C13          0.5771     6.7935     6.7906 C.ar         1    LIG   0.0000
  14 C14          0.3554     8.1150     6.2375 C.2          1    LIG   0.0000
  15 C15         -0.0533     9.2623     6.9705 C.2          1    LIG   0.0000
  16 C16         -0.2056    10.4140     6.2573 C.2          1    LIG   0.0000
  17 S17          0.1855     9.9696     4.6591 S.3          1    LIG   0.0000
  18 C18          0.5437     8.3240     4.9046 C.2          1    LIG   0.0000
  19 N19          0.3735     6.6623     8.1036 N.ar         1    LIG   0.0000
  20 C20          0.5815     5.4425     8.5995 C.ar         1    LIG   0.0000
  21 S21          0.3810     5.0377    10.2399 S.3          1    LIG   0.0000
  22 C22          0.8069     3.3889    10.1224 C.2          1    LIG   0.0000
  23 C23          1.0911     3.1703     8.8048 C.2          1    LIG   0.0000
  24 C24          1.4847     1.8346     8.3994 C.ar         1    LIG   0.0000
  25 C25          2.6316     1.6581     7.6323 C.ar         1    LIG   0.0000
  26 C26          3.0012     0.3736     7.2473 C.ar         1    LIG   0.0000
  27 C27          2.2271    -0.7177     7.6297 C.ar         1    LIG   0.0000
  28 C28          1.0818    -0.5319     8.3971 C.ar         1    LIG   0.0000
  29 C29          0.7047     0.7496     8.7859 C.ar         1    LIG   0.0000
  30 C30          0.9746     4.3015     7.9407 C.ar         1    LIG   0.0000
  31 C31          2.8078     3.6134     4.9294 C.3          1    LIG   0.0000
  32 H            0.8080    -0.9355     0.5756 H            1    LIG   0.0000
  33 H            0.0436     1.1077     1.2714 H            1    LIG   0.0000
  34 H            1.1077     1.2714     0.0436 H            1    LIG   0.0000
  35 H            0.2190     1.0388     3.9917 H            1    LIG   0.0000
  36 H           -0.2839     2.5780     3.7806 H            1    LIG   0.0000
  37 H           -0.1062     2.4097     6.0274 H            1    LIG   0.0000
  38 H            1.2641     1.5257     5.9404 H            1    LIG   0.0000
  39 H           -0.2199     9.2266     7.9559 H            1    LIG   0.0000
  40 H           -0.4833    11.3135     6.5945 H            1    LIG   0.0000
  41 H            0.8303     7.6551     4.2187 H            1    LIG   0.0000
  42 H            0.8412     2.7207    10.8655 H            1    LIG   0.0000
  43 H            3.1842     2.4459     7.3606 H            1    LIG   0.0000
  44 H            3.8235     0.2344     6.6956 H            1    LIG   0.0000
  45 H            2.4954    -1.6400     7.3514 H            1    LIG   0.0000
  46 H            0.5294    -1.3197     8.6695 H            1    LIG   0.0000
  47 H           -0.1180     0.8892     9.3370 H            1    LIG   0.0000
  48 H            3.5308     3.1276     5.4206 H            1    LIG   0.0000
  49 H            3.0560     4.5779     4.8393 H            1    LIG   0.0000
@<TRIPOS>BOND
   1        1        2 1
   2        2        3 1
   3        3        4 2
   4        4        5 1
   5        5        6 2
   6        6        7 1
   7        7        3 1
   8        7        8 1
   9        8        9 1
  10        9       10 1
  11       10       11 1
  12       11       12 ar
  13       12       13 ar
  14       13       14 1
  15       14       15 1
  16       15       16 2
  17       16       17 1
  18       17       18 1
  19       18       14 2
  20       13       19 ar
  21       19       20 ar
  22       20       21 1
  23       21       22 1
  24       22       23 2
  25       23       24 1
  26       24       25 ar
  27       25       26 ar
  28       26       27 ar
  29       27       28 ar
  30       28       29 ar
  31       29       24 ar
  32       23       30 1
  33       30       11 ar
  34       30       20 ar
  35       10       31 1
  36       31        6 1
  37        1       32 1
  38        2       33 1
  39        2       34 1
  40        8       35 1
  41        8       36 1
  42        9       37 1
  43        9       38 1
  44       15       39 1
  45       16       40 1
  46       18       41 1
  47       22       42 1
  48       25       43 1
  49       26       44 1
  50       27       45 1
  51       28       46 1
  52       29       47 1
  53       31       48 1
  54       31       49 1

