@<TRIPOS>MOLECULE
*****
 49 54 0 0 0
SMALL
USER_CHARGES

@<TRIPOS>ATOM
      1 O1          1.3854   -0.3581    1.1529 O.3     1  LIG1        0.0000
      2 C2          1.0000    1.0000    1.0000 C.3     1  LIG1        0.0000
      3 C3          1.8785    1.8785    1.8785 C.2     1  LIG1        0.0000
      4 N4          3.0128    2.4165    1.4950 N.2     1  LIG1        0.0000
      5 N5          3.4832    3.1137    2.5041 N.2     1  LIG1        0.0000
      6 C6          2.6729    3.0093    3.5327 C.2     1  LIG1        0.0000
      7 N7          1.6134    2.2472    3.1642 N.pl3   1  LIG1        0.0000
      8 C8          0.4791    2.0010    4.0722 C.3     1  LIG1        0.0000
      9 C9          0.7627    2.2958    5.5459 C.3     1  LIG1        0.0000
     10 N10         1.5607    3.5169    5.7071 N.pl3   1  LIG1        0.0000
     11 C11         1.1582    4.5333    6.5821 C.ar    1  LIG1        0.0000
     12 N12        -0.0208    5.1184    6.3219 N.ar    1  LIG1        0.0000
     13 C13        -0.5029    6.1043    7.0945 C.ar    1  LIG1        0.0000
     14 C14        -1.7740    6.7533    6.8400 C.2     1  LIG1        0.0000
     15 C15        -2.3407    7.7994    7.6177 C.2     1  LIG1        0.0000
     16 C16        -3.5509    8.2728    7.2058 C.2     1  LIG1        0.0000
     17 S17        -3.9135    7.3441    5.8236 S.3     1  LIG1        0.0000
     18 C18        -2.5251    6.3609    5.7734 C.2     1  LIG1        0.0000
     19 N19         0.1791    6.5398    8.1564 N.ar    1  LIG1        0.0000
     20 C20         1.3463    5.9353    8.3788 C.ar    1  LIG1        0.0000
     21 S21         2.3829    6.3191    9.6723 S.3     1  LIG1        0.0000
     22 C22         3.6144    5.1904    9.3211 C.2     1  LIG1        0.0000
     23 C23         3.1994    4.5208    8.2057 C.2     1  LIG1        0.0000
     24 C24         4.0561    3.4801    7.6707 C.ar    1  LIG1        0.0000
     25 C25         3.5206    2.2297    7.3799 C.ar    1  LIG1        0.0000
     26 C26         4.3497    1.2373    6.8677 C.ar    1  LIG1        0.0000
     27 C27         5.6989    1.5003    6.6512 C.ar    1  LIG1        0.0000
     28 C28         6.2259    2.7538    6.9446 C.ar    1  LIG1        0.0000
     29 C29         5.4037    3.7519    7.4578 C.ar    1  LIG1        0.0000
     30 C30         1.9406    4.9225    7.6637 C.ar    1  LIG1        0.0000
     31 C31         2.8078    3.6134    4.9294 C.3     1  LIG1        0.0000
     32 H           0.8080   -0.9355    0.5756 H       1  LIG1        0.0000
     33 H           0.0436    1.1077    1.2714 H       1  LIG1        0.0000
     34 H           1.1077    1.2714    0.0436 H       1  LIG1        0.0000
     35 H           0.2190    1.0388    3.9917 H       1  LIG1        0.0000
     36 H          -0.2839    2.5780    3.7806 H       1  LIG1        0.0000
     37 H          -0.1062    2.4097    6.0274 H       1  LIG1        0.0000
     38 H           1.2641    1.5257    5.9404 H       1  LIG1        0.0000
     39 H          -1.8769    8.1681    8.4233 H       1  LIG1        0.0000
     40 H          -4.1001    8.9987    7.6199 H       1  LIG1        0.0000
     41 H          -2.3078    5.6492    5.1054 H       1  LIG1        0.0000
     42 H           4.4647    5.0487    9.8279 H       1  LIG1        0.0000
     43 H           2.5503    2.0463    7.5373 H       1  LIG1        0.0000
     44 H           3.9761    0.3344    6.6551 H       1  LIG1        0.0000
     45 H           6.2925    0.7848    6.2828 H       1  LIG1        0.0000
     46 H           7.1961    2.9376    6.7867 H       1  LIG1        0.0000
     47 H           5.7772    4.6546    7.6713 H       1  LIG1        0.0000
     48 H           3.5308    3.1276    5.4206 H       1  LIG1        0.0000
     49 H           3.0560    4.5779    4.8393 H       1  LIG1        0.0000
@<TRIPOS>BOND
     1     1     2    1
     2     2     3    1
     3     3     4    2
     4     4     5    1
     5     5     6    2
     6     6     7    1
     7     7     3    1
     8     7     8    1
     9     8     9    1
    10     9    10    1
    11    10    11    1
    12    11    12   ar
    13    12    13   ar
    14    13    14    1
    15    14    15    1
    16    15    16    2
    17    16    17    1
    18    17    18    1
    19    18    14    2
    20    13    19   ar
    21    19    20   ar
    22    20    21    1
    23    21    22    1
    24    22    23    2
    25    23    24    1
    26    24    25   ar
    27    25    26   ar
    28    26    27   ar
    29    27    28   ar
    30    28    29   ar
    31    29    24   ar
    32    23    30    1
    33    30    11   ar
    34    30    20   ar
    35    10    31    1
    36    31     6    1
    37     1    32    1
    38     2    33    1
    39     2    34    1
    40     8    35    1
    41     8    36    1
    42     9    37    1
    43     9    38    1
    44    15    39    1
    45    16    40    1
    46    18    41    1
    47    22    42    1
    48    25    43    1
    49    26    44    1
    50    27    45    1
    51    28    46    1
    52    29    47    1
    53    31    48    1
    54    31    49    1
