@<TRIPOS>MOLECULE
*****
 49 54 0 0 0
SMALL
USER_CHARGES

@<TRIPOS>ATOM
      1 O1          1.3854   -0.3581    1.1529 O.3     1  LIG1        0.0000
      2 C2          1.0000    1.0000    1.0000 C.3     1  LIG1        0.0000
      3 C3          1.8785    1.8785    1.8785 C.2     1  LIG1        0.0000
      4 N4          1.6034    2.1997    3.1212 N.2     1  LIG1        0.0000
      5 N5          2.5841    2.9536    3.5632 N.2     1  LIG1        0.0000
      6 C6          3.4704    3.1339    2.6106 C.2     1  LIG1        0.0000
      7 N7          3.0698    2.4360    1.5190 N.pl3   1  LIG1        0.0000
      8 C8          3.8891    2.3672    0.2960 C.3     1  LIG1        0.0000
      9 C9          4.9735    3.4405    0.1904 C.3     1  LIG1        0.0000
     10 N10         5.6291    3.6729    1.4827 N.pl3   1  LIG1        0.0000
     11 C11         7.0242    3.6491    1.6003 C.ar    1  LIG1        0.0000
     12 N12         7.5398    2.7555    2.4581 N.ar    1  LIG1        0.0000
     13 C13         8.8637    2.6473    2.6502 C.ar    1  LIG1        0.0000
     14 C14         9.4499    1.6902    3.5678 C.2     1  LIG1        0.0000
     15 C15         8.7304    0.7622    4.3688 C.2     1  LIG1        0.0000
     16 C16         9.4754   -0.0532    5.1678 C.2     1  LIG1        0.0000
     17 S17        11.0846    0.4122    4.8539 S.3     1  LIG1        0.0000
     18 C18        10.8040    1.6380    3.7071 C.2     1  LIG1        0.0000
     19 N19         9.7194    3.4306    1.9894 N.ar    1  LIG1        0.0000
     20 C20         9.1675    4.3066    1.1495 C.ar    1  LIG1        0.0000
     21 S21        10.0581    5.4014    0.1992 S.3     1  LIG1        0.0000
     22 C22         8.7386    6.1566   -0.5769 C.2     1  LIG1        0.0000
     23 C23         7.6197    5.5406   -0.0940 C.2     1  LIG1        0.0000
     24 C24         6.3278    5.9779   -0.5869 C.ar    1  LIG1        0.0000
     25 C25         5.3164    6.2899    0.3156 C.ar    1  LIG1        0.0000
     26 C26         4.0803    6.7078   -0.1659 C.ar    1  LIG1        0.0000
     27 C27         3.8656    6.8104   -1.5370 C.ar    1  LIG1        0.0000
     28 C28         4.8829    6.4966   -2.4324 C.ar    1  LIG1        0.0000
     29 C29         6.1221    6.0772   -1.9591 C.ar    1  LIG1        0.0000
     30 C30         7.8366    4.5097    0.8705 C.ar    1  LIG1        0.0000
     31 C31         4.7592    3.9536    2.6377 C.3     1  LIG1        0.0000
     32 H           0.8080   -0.9355    0.5756 H       1  LIG1        0.0000
     33 H           0.0436    1.1077    1.2714 H       1  LIG1        0.0000
     34 H           1.1077    1.2714    0.0436 H       1  LIG1        0.0000
     35 H           3.2806    2.4609   -0.4920 H       1  LIG1        0.0000
     36 H           4.3337    1.4718    0.2692 H       1  LIG1        0.0000
     37 H           5.6601    3.1442   -0.4735 H       1  LIG1        0.0000
     38 H           4.5561    4.2944   -0.1203 H       1  LIG1        0.0000
     39 H           7.7320    0.7102    4.3472 H       1  LIG1        0.0000
     40 H           9.1518   -0.7620    5.7946 H       1  LIG1        0.0000
     41 H          11.4858    2.1987    3.2371 H       1  LIG1        0.0000
     42 H           8.7770    6.8976   -1.2473 H       1  LIG1        0.0000
     43 H           5.4763    6.2146    1.2999 H       1  LIG1        0.0000
     44 H           3.3455    6.9346    0.4734 H       1  LIG1        0.0000
     45 H           2.9758    7.1112   -1.8803 H       1  LIG1        0.0000
     46 H           4.7234    6.5725   -3.4167 H       1  LIG1        0.0000
     47 H           6.8568    5.8496   -2.5982 H       1  LIG1        0.0000
     48 H           4.5219    4.9251    2.6321 H       1  LIG1        0.0000
     49 H           5.2595    3.7375    3.4762 H       1  LIG1        0.0000
@<TRIPOS>BOND
     1     1     2    1
     2     2     3    1
     3     3     4    2
     4     4     5    1
     5     5     6    2
     6     6     7    1
     7     7     3    1
     8     7     8    1
     9     8     9    1
    10     9    10    1
    11    10    11    1
    12    11    12   ar
    13    12    13   ar
    14    13    14    1
    15    14    15    1
    16    15    16    2
    17    16    17    1
    18    17    18    1
    19    18    14    2
    20    13    19   ar
    21    19    20   ar
    22    20    21    1
    23    21    22    1
    24    22    23    2
    25    23    24    1
    26    24    25   ar
    27    25    26   ar
    28    26    27   ar
    29    27    28   ar
    30    28    29   ar
    31    29    24   ar
    32    23    30    1
    33    30    11   ar
    34    30    20   ar
    35    10    31    1
    36    31     6    1
    37     1    32    1
    38     2    33    1
    39     2    34    1
    40     8    35    1
    41     8    36    1
    42     9    37    1
    43     9    38    1
    44    15    39    1
    45    16    40    1
    46    18    41    1
    47    22    42    1
    48    25    43    1
    49    26    44    1
    50    27    45    1
    51    28    46    1
    52    29    47    1
    53    31    48    1
    54    31    49    1
