@<TRIPOS>MOLECULE
*****
 49 54 0 0 0
SMALL
USER_CHARGES

@<TRIPOS>ATOM
      1 O1          1.3854   -0.3581    1.1529 O.3     1  LIG1        0.0000
      2 C2          1.0000    1.0000    1.0000 C.3     1  LIG1        0.0000
      3 C3          1.8770    1.8770    1.8770 C.2     1  LIG1        0.0000
      4 N4          3.0113    2.4281    1.5269 N.2     1  LIG1        0.0000
      5 N5          3.4912    3.1168    2.5386 N.2     1  LIG1        0.0000
      6 C6          2.6629    3.0121    3.5511 C.2     1  LIG1        0.0000
      7 N7          1.6276    2.2375    3.1634 N.pl3   1  LIG1        0.0000
      8 C8          0.4940    1.9309    4.0431 C.3     1  LIG1        0.0000
      9 C9          0.1426    3.2631    4.6836 C.3     1  LIG1        0.0000
     10 N10         1.3013    3.9290    5.3012 N.pl3   1  LIG1        0.0000
     11 C11         1.0733    4.9351    6.2480 C.ar    1  LIG1        0.0000
     12 N12         0.3803    6.0060    5.8320 N.ar    1  LIG1        0.0000
     13 C13         0.1055    7.0296    6.6553 C.ar    1  LIG1        0.0000
     14 C14        -0.6429    8.1980    6.2354 C.2     1  LIG1        0.0000
     15 C15        -0.9681    9.3127    7.0553 C.2     1  LIG1        0.0000
     16 C16        -1.6824   10.3117    6.4637 C.2     1  LIG1        0.0000
     17 S17        -1.9091    9.7710    4.8634 S.3     1  LIG1        0.0000
     18 C18        -1.0931    8.2801    4.9523 C.2     1  LIG1        0.0000
     19 N19         0.5150    7.0174    7.9260 N.ar    1  LIG1        0.0000
     20 C20         1.2026    5.9379    8.2991 C.ar    1  LIG1        0.0000
     21 S21         1.8197    5.7004    9.8668 S.3     1  LIG1        0.0000
     22 C22         2.5420    4.1770    9.5999 C.2     1  LIG1        0.0000
     23 C23         2.2859    3.8664    8.2950 C.2     1  LIG1        0.0000
     24 C24         2.7823    2.6053    7.7789 C.ar    1  LIG1        0.0000
     25 C25         1.9219    1.7576    7.0890 C.ar    1  LIG1        0.0000
     26 C26         2.4062    0.5497    6.5980 C.ar    1  LIG1        0.0000
     27 C27         3.7383    0.2004    6.7986 C.ar    1  LIG1        0.0000
     28 C28         4.5917    1.0545    7.4895 C.ar    1  LIG1        0.0000
     29 C29         4.1151    2.2642    7.9845 C.ar    1  LIG1        0.0000
     30 C30         1.5440    4.8350    7.5525 C.ar    1  LIG1        0.0000
     31 C31         2.6888    3.5807    4.9604 C.3     1  LIG1        0.0000
     32 H           0.8080   -0.9355    0.5756 H       1  LIG1        0.0000
     33 H           0.0436    1.1077    1.2714 H       1  LIG1        0.0000
     34 H           1.1077    1.2714    0.0436 H       1  LIG1        0.0000
     35 H           0.7564    1.2620    4.7386 H       1  LIG1        0.0000
     36 H          -0.2782    1.5774    3.5152 H       1  LIG1        0.0000
     37 H          -0.2332    3.8658    3.9796 H       1  LIG1        0.0000
     38 H          -0.5475    3.1048    5.3899 H       1  LIG1        0.0000
     39 H          -0.6881    9.3614    8.0141 H       1  LIG1        0.0000
     40 H          -2.0005   11.1661    6.8746 H       1  LIG1        0.0000
     41 H          -0.9706    7.6094    4.2208 H       1  LIG1        0.0000
     42 H           3.0486    3.6255   10.2626 H       1  LIG1        0.0000
     43 H           0.9657    2.0137    6.9475 H       1  LIG1        0.0000
     44 H           1.7970   -0.0680    6.1007 H       1  LIG1        0.0000
     45 H           4.0836   -0.6686    6.4445 H       1  LIG1        0.0000
     46 H           5.5481    0.7988    7.6305 H       1  LIG1        0.0000
     47 H           4.7240    2.8817    8.4825 H       1  LIG1        0.0000
     48 H           3.0400    2.8979    5.6010 H       1  LIG1        0.0000
     49 H           3.2666    4.3962    4.9924 H       1  LIG1        0.0000
@<TRIPOS>BOND
     1     1     2    1
     2     2     3    1
     3     3     4    2
     4     4     5    1
     5     5     6    2
     6     6     7    1
     7     7     3    1
     8     7     8    1
     9     8     9    1
    10     9    10    1
    11    10    11    1
    12    11    12   ar
    13    12    13   ar
    14    13    14    1
    15    14    15    1
    16    15    16    2
    17    16    17    1
    18    17    18    1
    19    18    14    2
    20    13    19   ar
    21    19    20   ar
    22    20    21    1
    23    21    22    1
    24    22    23    2
    25    23    24    1
    26    24    25   ar
    27    25    26   ar
    28    26    27   ar
    29    27    28   ar
    30    28    29   ar
    31    29    24   ar
    32    23    30    1
    33    30    11   ar
    34    30    20   ar
    35    10    31    1
    36    31     6    1
    37     1    32    1
    38     2    33    1
    39     2    34    1
    40     8    35    1
    41     8    36    1
    42     9    37    1
    43     9    38    1
    44    15    39    1
    45    16    40    1
    46    18    41    1
    47    22    42    1
    48    25    43    1
    49    26    44    1
    50    27    45    1
    51    28    46    1
    52    29    47    1
    53    31    48    1
    54    31    49    1
