@<TRIPOS>MOLECULE
*****
 49 54 0 0 0
SMALL
USER_CHARGES

@<TRIPOS>ATOM
      1 O1          1.3854   -0.3581    1.1529 O.3     1  LIG1        0.0000
      2 C2          1.0000    1.0000    1.0000 C.3     1  LIG1        0.0000
      3 C3          1.8785    1.8785    1.8785 C.2     1  LIG1        0.0000
      4 N4          1.6034    2.1997    3.1212 N.2     1  LIG1        0.0000
      5 N5          2.5841    2.9536    3.5632 N.2     1  LIG1        0.0000
      6 C6          3.4704    3.1339    2.6106 C.2     1  LIG1        0.0000
      7 N7          3.0698    2.4360    1.5190 N.pl3   1  LIG1        0.0000
      8 C8          3.8891    2.3672    0.2960 C.3     1  LIG1        0.0000
      9 C9          4.9735    3.4405    0.1904 C.3     1  LIG1        0.0000
     10 N10         5.6291    3.6729    1.4827 N.pl3   1  LIG1        0.0000
     11 C11         7.0242    3.6491    1.6003 C.ar    1  LIG1        0.0000
     12 N12         7.6338    2.4946    1.2911 N.ar    1  LIG1        0.0000
     13 C13         8.9668    2.3597    1.3694 C.ar    1  LIG1        0.0000
     14 C14         9.6535    1.1263    1.0395 C.2     1  LIG1        0.0000
     15 C15        11.0583    0.9182    1.0999 C.2     1  LIG1        0.0000
     16 C16        11.5027   -0.3210    0.7460 C.2     1  LIG1        0.0000
     17 S17        10.0829   -1.1746    0.3459 S.3     1  LIG1        0.0000
     18 C18         8.9313    0.0452    0.6327 C.2     1  LIG1        0.0000
     19 N19         9.7378    3.3771    1.7604 N.ar    1  LIG1        0.0000
     20 C20         9.0940    4.5050    2.0615 C.ar    1  LIG1        0.0000
     21 S21         9.8666    5.9304    2.5773 S.3     1  LIG1        0.0000
     22 C22         8.4696    6.8935    2.7628 C.2     1  LIG1        0.0000
     23 C23         7.4179    6.0965    2.4116 C.2     1  LIG1        0.0000
     24 C24         6.0819    6.6578    2.4673 C.ar    1  LIG1        0.0000
     25 C25         5.2328    6.5238    1.3736 C.ar    1  LIG1        0.0000
     26 C26         3.9534    7.0659    1.4354 C.ar    1  LIG1        0.0000
     27 C27         3.5347    7.7333    2.5824 C.ar    1  LIG1        0.0000
     28 C28         4.3903    7.8624    3.6716 C.ar    1  LIG1        0.0000
     29 C29         5.6719    7.3237    3.6178 C.ar    1  LIG1        0.0000
     30 C30         7.7439    4.7620    2.0208 C.ar    1  LIG1        0.0000
     31 C31         4.7592    3.9536    2.6377 C.3     1  LIG1        0.0000
     32 H           0.8080   -0.9355    0.5756 H       1  LIG1        0.0000
     33 H           0.0436    1.1077    1.2714 H       1  LIG1        0.0000
     34 H           1.1077    1.2714    0.0436 H       1  LIG1        0.0000
     35 H           3.2806    2.4609   -0.4920 H       1  LIG1        0.0000
     36 H           4.3337    1.4718    0.2692 H       1  LIG1        0.0000
     37 H           5.6601    3.1442   -0.4735 H       1  LIG1        0.0000
     38 H           4.5561    4.2944   -0.1203 H       1  LIG1        0.0000
     39 H          11.6865    1.6416    1.3863 H       1  LIG1        0.0000
     40 H          12.4457   -0.6530    0.7258 H       1  LIG1        0.0000
     41 H           7.9390   -0.0180    0.5258 H       1  LIG1        0.0000
     42 H           8.4295    7.8455    3.0663 H       1  LIG1        0.0000
     43 H           5.5390    6.0429    0.5520 H       1  LIG1        0.0000
     44 H           3.3343    6.9760    0.6553 H       1  LIG1        0.0000
     45 H           2.6142    8.1220    2.6239 H       1  LIG1        0.0000
     46 H           4.0841    8.3427    4.4936 H       1  LIG1        0.0000
     47 H           6.2915    7.4141    4.3975 H       1  LIG1        0.0000
     48 H           4.5219    4.9251    2.6321 H       1  LIG1        0.0000
     49 H           5.2595    3.7375    3.4762 H       1  LIG1        0.0000
@<TRIPOS>BOND
     1     1     2    1
     2     2     3    1
     3     3     4    2
     4     4     5    1
     5     5     6    2
     6     6     7    1
     7     7     3    1
     8     7     8    1
     9     8     9    1
    10     9    10    1
    11    10    11    1
    12    11    12   ar
    13    12    13   ar
    14    13    14    1
    15    14    15    1
    16    15    16    2
    17    16    17    1
    18    17    18    1
    19    18    14    2
    20    13    19   ar
    21    19    20   ar
    22    20    21    1
    23    21    22    1
    24    22    23    2
    25    23    24    1
    26    24    25   ar
    27    25    26   ar
    28    26    27   ar
    29    27    28   ar
    30    28    29   ar
    31    29    24   ar
    32    23    30    1
    33    30    11   ar
    34    30    20   ar
    35    10    31    1
    36    31     6    1
    37     1    32    1
    38     2    33    1
    39     2    34    1
    40     8    35    1
    41     8    36    1
    42     9    37    1
    43     9    38    1
    44    15    39    1
    45    16    40    1
    46    18    41    1
    47    22    42    1
    48    25    43    1
    49    26    44    1
    50    27    45    1
    51    28    46    1
    52    29    47    1
    53    31    48    1
    54    31    49    1
