@<TRIPOS>MOLECULE
*****
 49 54 0 0 0
SMALL
USER_CHARGES

@<TRIPOS>ATOM
      1 O1          1.3854   -0.3581    1.1529 O.3     1  LIG1        0.0000
      2 C2          1.0000    1.0000    1.0000 C.3     1  LIG1        0.0000
      3 C3          1.8770    1.8770    1.8770 C.2     1  LIG1        0.0000
      4 N4          1.6330    2.2161    3.1173 N.2     1  LIG1        0.0000
      5 N5          2.6066    2.9809    3.5592 N.2     1  LIG1        0.0000
      6 C6          3.4879    3.1386    2.5996 C.2     1  LIG1        0.0000
      7 N7          3.0581    2.4482    1.5223 N.pl3   1  LIG1        0.0000
      8 C8          3.8180    2.3811    0.2689 C.3     1  LIG1        0.0000
      9 C9          5.2503    2.1298    0.7093 C.3     1  LIG1        0.0000
     10 N10         5.7197    3.0920    1.7198 N.pl3   1  LIG1        0.0000
     11 C11         7.0976    3.2358    1.9229 C.ar    1  LIG1        0.0000
     12 N12         7.7652    2.1395    2.3135 N.ar    1  LIG1        0.0000
     13 C13         9.0881    2.1640    2.5383 C.ar    1  LIG1        0.0000
     14 C14         9.8366    0.9956    2.9583 C.2     1  LIG1        0.0000
     15 C15         9.2941   -0.2984    3.1855 C.2     1  LIG1        0.0000
     16 C16        10.1735   -1.2633    3.5780 C.2     1  LIG1        0.0000
     17 S17        11.6748   -0.4590    3.6401 S.3     1  LIG1        0.0000
     18 C18        11.1793    1.0982    3.1644 C.2     1  LIG1        0.0000
     19 N19         9.7906    3.2882    2.3796 N.ar    1  LIG1        0.0000
     20 C20         9.0905    4.3552    1.9939 C.ar    1  LIG1        0.0000
     21 S21         9.7716    5.8909    1.7244 S.3     1  LIG1        0.0000
     22 C22         8.3372    6.7023    1.2794 C.2     1  LIG1        0.0000
     23 C23         7.3457    5.7652    1.3365 C.2     1  LIG1        0.0000
     24 C24         5.9953    6.1724    0.9988 C.ar    1  LIG1        0.0000
     25 C25         5.2570    5.4214    0.0900 C.ar    1  LIG1        0.0000
     26 C26         3.9630    5.8196   -0.2287 C.ar    1  LIG1        0.0000
     27 C27         3.4200    6.9578    0.3596 C.ar    1  LIG1        0.0000
     28 C28         4.1654    7.7027    1.2676 C.ar    1  LIG1        0.0000
     29 C29         5.4608    7.3117    1.5914 C.ar    1  LIG1        0.0000
     30 C30         7.7436    4.4527    1.7352 C.ar    1  LIG1        0.0000
     31 C31         4.7978    3.9059    2.5262 C.3     1  LIG1        0.0000
     32 H           0.8080   -0.9355    0.5756 H       1  LIG1        0.0000
     33 H           0.0436    1.1077    1.2714 H       1  LIG1        0.0000
     34 H           1.1077    1.2714    0.0436 H       1  LIG1        0.0000
     35 H           3.7483    3.2427   -0.2339 H       1  LIG1        0.0000
     36 H           3.4878    1.6322   -0.3056 H       1  LIG1        0.0000
     37 H           5.3080    1.2090    1.0952 H       1  LIG1        0.0000
     38 H           5.8456    2.1933   -0.0917 H       1  LIG1        0.0000
     39 H           8.3203   -0.4906    3.0640 H       1  LIG1        0.0000
     40 H           9.9816   -2.2231    3.7827 H       1  LIG1        0.0000
     41 H          11.7502    1.9123    3.0589 H       1  LIG1        0.0000
     42 H           8.2426    7.6656    1.0285 H       1  LIG1        0.0000
     43 H           5.6523    4.6042   -0.3296 H       1  LIG1        0.0000
     44 H           3.4228    5.2878   -0.8809 H       1  LIG1        0.0000
     45 H           2.4893    7.2416    0.1285 H       1  LIG1        0.0000
     46 H           3.7701    8.5195    1.6878 H       1  LIG1        0.0000
     47 H           6.0015    7.8437    2.2430 H       1  LIG1        0.0000
     48 H           4.6526    4.7947    2.0916 H       1  LIG1        0.0000
     49 H           5.1702    4.0406    3.4444 H       1  LIG1        0.0000
@<TRIPOS>BOND
     1     1     2    1
     2     2     3    1
     3     3     4    2
     4     4     5    1
     5     5     6    2
     6     6     7    1
     7     7     3    1
     8     7     8    1
     9     8     9    1
    10     9    10    1
    11    10    11    1
    12    11    12   ar
    13    12    13   ar
    14    13    14    1
    15    14    15    1
    16    15    16    2
    17    16    17    1
    18    17    18    1
    19    18    14    2
    20    13    19   ar
    21    19    20   ar
    22    20    21    1
    23    21    22    1
    24    22    23    2
    25    23    24    1
    26    24    25   ar
    27    25    26   ar
    28    26    27   ar
    29    27    28   ar
    30    28    29   ar
    31    29    24   ar
    32    23    30    1
    33    30    11   ar
    34    30    20   ar
    35    10    31    1
    36    31     6    1
    37     1    32    1
    38     2    33    1
    39     2    34    1
    40     8    35    1
    41     8    36    1
    42     9    37    1
    43     9    38    1
    44    15    39    1
    45    16    40    1
    46    18    41    1
    47    22    42    1
    48    25    43    1
    49    26    44    1
    50    27    45    1
    51    28    46    1
    52    29    47    1
    53    31    48    1
    54    31    49    1
