@<TRIPOS>MOLECULE

  58   62
SMALL
USER_CHARGES
@<TRIPOS>ATOM
   1 C1          -1.2300    -4.7970     1.8041 C.3          1    LIG   0.0000
   2 O2          -1.7681    -3.7697     0.9848 O.3          1    LIG   0.0000
   3 C3          -1.0874    -2.6048     0.9914 C.ar         1    LIG   0.0000
   4 C4           0.0581    -2.4812     1.7713 C.ar         1    LIG   0.0000
   5 C5           0.7531    -1.2767     1.7723 C.ar         1    LIG   0.0000
   6 C6           0.3001    -0.2123     1.0000 C.ar         1    LIG   0.0000
   7 N7           1.0000     1.0000     1.0000 N.am         1    LIG   0.0000
   8 C8           2.3700     1.0000     1.0000 C.2          1    LIG   0.0000
   9 O9           2.9700    -0.0392     1.0000 O.2          1    LIG   0.0000
  10 C10          3.1300     2.3164     1.0000 C.3          1    LIG   0.0000
  11 C11          4.6246     2.0386     1.0000 C.2          1    LIG   0.0000
  12 C12          5.4529     2.0755    -0.0781 C.2          1    LIG   0.0000
  13 N13          6.6969     1.7638     0.3860 N.pl3        1    LIG   0.0000
  14 C14          7.8535     1.6910    -0.3998 C.ar         1    LIG   0.0000
  15 C15          9.0684     1.3620     0.1924 C.ar         1    LIG   0.0000
  16 C16         10.2124     1.2926    -0.5957 C.ar         1    LIG   0.0000
  17 C17         10.1342     1.5506    -1.9609 C.ar         1    LIG   0.0000
  18 C18          8.9149     1.8786    -2.5448 C.ar         1    LIG   0.0000
  19 C19          7.7660     1.9507    -1.7636 C.ar         1    LIG   0.0000
  20 N20          6.6446     1.5428     1.6811 N.2          1    LIG   0.0000
  21 C21          5.4178     1.6913     2.1143 C.2          1    LIG   0.0000
  22 C22          4.9597     1.5296     3.4806 C.ar         1    LIG   0.0000
  23 C23          5.4672     0.4927     4.2571 C.ar         1    LIG   0.0000
  24 C24          5.0329     0.3295     5.5684 C.ar         1    LIG   0.0000
  25 C25          4.0906     1.2123     6.0861 C.ar         1    LIG   0.0000
  26 Cl26         3.5304     1.0096     7.7632 Cl           1    LIG   0.0000
  27 C27          3.5771     2.2514     5.3164 C.ar         1    LIG   0.0000
  28 C28          4.0169     2.4067     4.0060 C.ar         1    LIG   0.0000
  29 C29         -0.8443    -0.3324     0.2188 C.ar         1    LIG   0.0000
  30 C30         -1.5362    -1.5384     0.2205 C.ar         1    LIG   0.0000
  31 N31         -2.6923    -1.6784    -0.5582 N.pl3        1    LIG   0.0000
  32 N32         -2.7894    -1.5556    -1.8598 N.2          1    LIG   0.0000
  33 N33         -3.9820    -1.7509    -2.2375 N.2          1    LIG   0.0000
  34 N34         -4.7221    -2.0135    -1.1842 N.2          1    LIG   0.0000
  35 C35         -3.9446    -1.9737    -0.1267 C.2          1    LIG   0.0000
  36 C36         -4.3708    -2.2130     1.3146 C.3          1    LIG   0.0000
  37 H           -1.8011    -5.6146     1.7318 H            1    LIG   0.0000
  38 H           -0.3010    -5.0116     1.5026 H            1    LIG   0.0000
  39 H           -1.2088    -4.4882     2.7550 H            1    LIG   0.0000
  40 H            0.3781    -3.2500     2.3250 H            1    LIG   0.0000
  41 H            1.5783    -1.1758     2.3280 H            1    LIG   0.0000
  42 H            0.5000     1.8660     1.0000 H            1    LIG   0.0000
  43 H            2.8884     2.8407     1.8165 H            1    LIG   0.0000
  44 H            2.8884     2.8407     0.1835 H            1    LIG   0.0000
  45 H            5.2004     2.2884    -1.0220 H            1    LIG   0.0000
  46 H            9.1188     1.1774     1.1739 H            1    LIG   0.0000
  47 H           11.0915     1.0574    -0.1811 H            1    LIG   0.0000
  48 H           10.9584     1.4999    -2.5249 H            1    LIG   0.0000
  49 H            8.8643     2.0625    -3.5264 H            1    LIG   0.0000
  50 H            6.8869     2.1868    -2.1779 H            1    LIG   0.0000
  51 H            6.1440    -0.1351     3.8725 H            1    LIG   0.0000
  52 H            5.3937    -0.4134     6.1322 H            1    LIG   0.0000
  53 H            2.9001     2.8790     5.7007 H            1    LIG   0.0000
  54 H            3.6553     3.1489     3.4417 H            1    LIG   0.0000
  55 H           -1.1643     0.4362    -0.3351 H            1    LIG   0.0000
  56 H           -3.5774    -2.1211     1.9164 H            1    LIG   0.0000
  57 H           -5.0648    -1.5410     1.5729 H            1    LIG   0.0000
  58 H           -4.7501    -3.1342     1.4014 H            1    LIG   0.0000
@<TRIPOS>BOND
   1        1        2 1
   2        2        3 1
   3        3        4 ar
   4        4        5 ar
   5        5        6 ar
   6        6        7 1
   7        7        8 am
   8        8        9 2
   9        8       10 1
  10       10       11 1
  11       11       12 2
  12       12       13 1
  13       13       14 1
  14       14       15 ar
  15       15       16 ar
  16       16       17 ar
  17       17       18 ar
  18       18       19 ar
  19       19       14 ar
  20       13       20 1
  21       20       21 2
  22       21       11 1
  23       21       22 1
  24       22       23 ar
  25       23       24 ar
  26       24       25 ar
  27       25       26 1
  28       25       27 ar
  29       27       28 ar
  30       28       22 ar
  31        6       29 ar
  32       29       30 ar
  33       30        3 ar
  34       30       31 1
  35       31       32 1
  36       32       33 2
  37       33       34 1
  38       34       35 2
  39       35       31 1
  40       35       36 1
  41        1       37 1
  42        1       38 1
  43        1       39 1
  44        4       40 1
  45        5       41 1
  46        7       42 1
  47       10       43 1
  48       10       44 1
  49       12       45 1
  50       15       46 1
  51       16       47 1
  52       17       48 1
  53       18       49 1
  54       19       50 1
  55       23       51 1
  56       24       52 1
  57       27       53 1
  58       28       54 1
  59       29       55 1
  60       36       56 1
  61       36       57 1
  62       36       58 1

@<TRIPOS>MOLECULE

  58   62
SMALL
USER_CHARGES
@<TRIPOS>ATOM
   1 C1          -1.2364    -4.7933     0.1870 C.3          1    LIG   0.0000
   2 O2          -1.7722    -3.7673     1.0096 O.3          1    LIG   0.0000
   3 C3          -1.0909    -2.6027     1.0038 C.ar         1    LIG   0.0000
   4 C4           0.0540    -2.4789     0.2231 C.ar         1    LIG   0.0000
   5 C5           0.7501    -1.2750     0.2236 C.ar         1    LIG   0.0000
   6 C6           0.3001    -0.2123     1.0000 C.ar         1    LIG   0.0000
   7 N7           1.0000     1.0000     1.0000 N.am         1    LIG   0.0000
   8 C8           2.3700     1.0000     1.0000 C.2          1    LIG   0.0000
   9 O9           2.9700    -0.0392     1.0000 O.2          1    LIG   0.0000
  10 C10          3.1300     2.3164     1.0000 C.3          1    LIG   0.0000
  11 C11          4.6246     2.0386     1.0000 C.2          1    LIG   0.0000
  12 C12          5.4529     2.0755    -0.0781 C.2          1    LIG   0.0000
  13 N13          6.6969     1.7638     0.3860 N.pl3        1    LIG   0.0000
  14 C14          7.8535     1.6910    -0.3998 C.ar         1    LIG   0.0000
  15 C15          9.0684     1.3620     0.1924 C.ar         1    LIG   0.0000
  16 C16         10.2124     1.2926    -0.5957 C.ar         1    LIG   0.0000
  17 C17         10.1342     1.5506    -1.9609 C.ar         1    LIG   0.0000
  18 C18          8.9149     1.8786    -2.5448 C.ar         1    LIG   0.0000
  19 C19          7.7660     1.9507    -1.7636 C.ar         1    LIG   0.0000
  20 N20          6.6446     1.5428     1.6811 N.2          1    LIG   0.0000
  21 C21          5.4178     1.6913     2.1143 C.2          1    LIG   0.0000
  22 C22          4.9597     1.5296     3.4806 C.ar         1    LIG   0.0000
  23 C23          5.4672     0.4927     4.2571 C.ar         1    LIG   0.0000
  24 C24          5.0329     0.3295     5.5684 C.ar         1    LIG   0.0000
  25 C25          4.0906     1.2123     6.0861 C.ar         1    LIG   0.0000
  26 Cl26         3.5304     1.0096     7.7632 Cl           1    LIG   0.0000
  27 C27          3.5771     2.2514     5.3164 C.ar         1    LIG   0.0000
  28 C28          4.0169     2.4067     4.0060 C.ar         1    LIG   0.0000
  29 C29         -0.8443    -0.3324     1.7812 C.ar         1    LIG   0.0000
  30 C30         -1.5375    -1.5377     1.7778 C.ar         1    LIG   0.0000
  31 N31         -2.6912    -1.6790     2.5596 N.pl3        1    LIG   0.0000
  32 N32         -3.7943    -0.9754     2.4769 N.2          1    LIG   0.0000
  33 N33         -4.6399    -1.3711     3.3323 N.2          1    LIG   0.0000
  34 N34         -4.1169    -2.3629     4.0171 N.2          1    LIG   0.0000
  35 C35         -2.9051    -2.5739     3.5572 C.2          1    LIG   0.0000
  36 C36         -1.9236    -3.6259     4.0531 C.3          1    LIG   0.0000
  37 H           -1.8078    -5.6108     0.2590 H            1    LIG   0.0000
  38 H           -1.2171    -4.4826    -0.7633 H            1    LIG   0.0000
  39 H           -0.3068    -5.0089     0.4862 H            1    LIG   0.0000
  40 H            0.3729    -3.2470    -0.3322 H            1    LIG   0.0000
  41 H            1.5740    -1.1733    -0.3340 H            1    LIG   0.0000
  42 H            0.5000     1.8660     1.0000 H            1    LIG   0.0000
  43 H            2.8884     2.8407     1.8165 H            1    LIG   0.0000
  44 H            2.8884     2.8407     0.1835 H            1    LIG   0.0000
  45 H            5.2004     2.2884    -1.0220 H            1    LIG   0.0000
  46 H            9.1188     1.1774     1.1739 H            1    LIG   0.0000
  47 H           11.0915     1.0574    -0.1811 H            1    LIG   0.0000
  48 H           10.9584     1.4999    -2.5249 H            1    LIG   0.0000
  49 H            8.8643     2.0625    -3.5264 H            1    LIG   0.0000
  50 H            6.8869     2.1868    -2.1779 H            1    LIG   0.0000
  51 H            6.1440    -0.1351     3.8725 H            1    LIG   0.0000
  52 H            5.3937    -0.4134     6.1322 H            1    LIG   0.0000
  53 H            2.9001     2.8790     5.7007 H            1    LIG   0.0000
  54 H            3.6553     3.1489     3.4417 H            1    LIG   0.0000
  55 H           -1.1634     0.4357     2.3364 H            1    LIG   0.0000
  56 H           -1.0758    -3.5655     3.5262 H            1    LIG   0.0000
  57 H           -1.7267    -3.4683     5.0207 H            1    LIG   0.0000
  58 H           -2.3234    -4.5353     3.9381 H            1    LIG   0.0000
@<TRIPOS>BOND
   1        1        2 1
   2        2        3 1
   3        3        4 ar
   4        4        5 ar
   5        5        6 ar
   6        6        7 1
   7        7        8 am
   8        8        9 2
   9        8       10 1
  10       10       11 1
  11       11       12 2
  12       12       13 1
  13       13       14 1
  14       14       15 ar
  15       15       16 ar
  16       16       17 ar
  17       17       18 ar
  18       18       19 ar
  19       19       14 ar
  20       13       20 1
  21       20       21 2
  22       21       11 1
  23       21       22 1
  24       22       23 ar
  25       23       24 ar
  26       24       25 ar
  27       25       26 1
  28       25       27 ar
  29       27       28 ar
  30       28       22 ar
  31        6       29 ar
  32       29       30 ar
  33       30        3 ar
  34       30       31 1
  35       31       32 1
  36       32       33 2
  37       33       34 1
  38       34       35 2
  39       35       31 1
  40       35       36 1
  41        1       37 1
  42        1       38 1
  43        1       39 1
  44        4       40 1
  45        5       41 1
  46        7       42 1
  47       10       43 1
  48       10       44 1
  49       12       45 1
  50       15       46 1
  51       16       47 1
  52       17       48 1
  53       18       49 1
  54       19       50 1
  55       23       51 1
  56       24       52 1
  57       27       53 1
  58       28       54 1
  59       29       55 1
  60       36       56 1
  61       36       57 1
  62       36       58 1

@<TRIPOS>MOLECULE

  58   62
SMALL
USER_CHARGES
@<TRIPOS>ATOM
   1 C1          -1.2300    -4.7970     1.8041 C.3          1    LIG   0.0000
   2 O2          -1.7681    -3.7697     0.9848 O.3          1    LIG   0.0000
   3 C3          -1.0874    -2.6048     0.9914 C.ar         1    LIG   0.0000
   4 C4           0.0581    -2.4812     1.7713 C.ar         1    LIG   0.0000
   5 C5           0.7531    -1.2767     1.7723 C.ar         1    LIG   0.0000
   6 C6           0.3001    -0.2123     1.0000 C.ar         1    LIG   0.0000
   7 N7           1.0000     1.0000     1.0000 N.am         1    LIG   0.0000
   8 C8           2.3700     1.0000     1.0000 C.2          1    LIG   0.0000
   9 O9           2.9700    -0.0392     1.0000 O.2          1    LIG   0.0000
  10 C10          3.1300     2.3164     1.0000 C.3          1    LIG   0.0000
  11 C11          4.6246     2.0386     1.0000 C.2          1    LIG   0.0000
  12 C12          5.5721     2.7167     1.7015 C.2          1    LIG   0.0000
  13 N13          6.7643     2.1266     1.4010 N.pl3        1    LIG   0.0000
  14 C14          8.0070     2.5167     1.9149 C.ar         1    LIG   0.0000
  15 C15          9.1560     1.8331     1.5310 C.ar         1    LIG   0.0000
  16 C16         10.3861     2.2270     2.0470 C.ar         1    LIG   0.0000
  17 C17         10.4583     3.2945     2.9368 C.ar         1    LIG   0.0000
  18 C18          9.3041     3.9726     3.3151 C.ar         1    LIG   0.0000
  19 C19          8.0696     3.5846     2.8041 C.ar         1    LIG   0.0000
  20 N20          6.5692     1.1374     0.5570 N.2          1    LIG   0.0000
  21 C21          5.2953     1.0323     0.2727 C.2          1    LIG   0.0000
  22 C22          4.6875     0.0652    -0.6207 C.ar         1    LIG   0.0000
  23 C23          5.1416    -1.2499    -0.6209 C.ar         1    LIG   0.0000
  24 C24          4.5650    -2.1842    -1.4751 C.ar         1    LIG   0.0000
  25 C25          3.5361    -1.7852    -2.3220 C.ar         1    LIG   0.0000
  26 Cl26         2.7936    -2.9752    -3.4175 Cl           1    LIG   0.0000
  27 C27          3.0764    -0.4721    -2.3290 C.ar         1    LIG   0.0000
  28 C28          3.6592     0.4555    -1.4717 C.ar         1    LIG   0.0000
  29 C29         -0.8443    -0.3324     0.2188 C.ar         1    LIG   0.0000
  30 C30         -1.5362    -1.5384     0.2205 C.ar         1    LIG   0.0000
  31 N31         -2.6923    -1.6784    -0.5582 N.pl3        1    LIG   0.0000
  32 N32         -2.7894    -1.5556    -1.8598 N.2          1    LIG   0.0000
  33 N33         -3.9820    -1.7509    -2.2375 N.2          1    LIG   0.0000
  34 N34         -4.7221    -2.0135    -1.1842 N.2          1    LIG   0.0000
  35 C35         -3.9446    -1.9737    -0.1267 C.2          1    LIG   0.0000
  36 C36         -4.3708    -2.2130     1.3146 C.3          1    LIG   0.0000
  37 H           -1.8011    -5.6146     1.7318 H            1    LIG   0.0000
  38 H           -0.3010    -5.0116     1.5026 H            1    LIG   0.0000
  39 H           -1.2088    -4.4882     2.7550 H            1    LIG   0.0000
  40 H            0.3781    -3.2500     2.3250 H            1    LIG   0.0000
  41 H            1.5783    -1.1758     2.3280 H            1    LIG   0.0000
  42 H            0.5000     1.8660     1.0000 H            1    LIG   0.0000
  43 H            2.8884     2.8407     1.8165 H            1    LIG   0.0000
  44 H            2.8884     2.8407     0.1835 H            1    LIG   0.0000
  45 H            5.4242     3.4926     2.3148 H            1    LIG   0.0000
  46 H            9.0982     1.0669     0.8910 H            1    LIG   0.0000
  47 H           11.2189     1.7430     1.7784 H            1    LIG   0.0000
  48 H           11.3441     3.5754     3.3061 H            1    LIG   0.0000
  49 H            9.3618     4.7393     3.9545 H            1    LIG   0.0000
  50 H            7.2366     4.0680     3.0731 H            1    LIG   0.0000
  51 H            5.8823    -1.5234    -0.0072 H            1    LIG   0.0000
  52 H            4.8863    -3.1312    -1.4802 H            1    LIG   0.0000
  53 H            2.3360    -0.1984    -2.9429 H            1    LIG   0.0000
  54 H            3.3387     1.4027    -1.4673 H            1    LIG   0.0000
  55 H           -1.1643     0.4362    -0.3351 H            1    LIG   0.0000
  56 H           -3.5774    -2.1211     1.9164 H            1    LIG   0.0000
  57 H           -5.0648    -1.5410     1.5729 H            1    LIG   0.0000
  58 H           -4.7501    -3.1342     1.4014 H            1    LIG   0.0000
@<TRIPOS>BOND
   1        1        2 1
   2        2        3 1
   3        3        4 ar
   4        4        5 ar
   5        5        6 ar
   6        6        7 1
   7        7        8 am
   8        8        9 2
   9        8       10 1
  10       10       11 1
  11       11       12 2
  12       12       13 1
  13       13       14 1
  14       14       15 ar
  15       15       16 ar
  16       16       17 ar
  17       17       18 ar
  18       18       19 ar
  19       19       14 ar
  20       13       20 1
  21       20       21 2
  22       21       11 1
  23       21       22 1
  24       22       23 ar
  25       23       24 ar
  26       24       25 ar
  27       25       26 1
  28       25       27 ar
  29       27       28 ar
  30       28       22 ar
  31        6       29 ar
  32       29       30 ar
  33       30        3 ar
  34       30       31 1
  35       31       32 1
  36       32       33 2
  37       33       34 1
  38       34       35 2
  39       35       31 1
  40       35       36 1
  41        1       37 1
  42        1       38 1
  43        1       39 1
  44        4       40 1
  45        5       41 1
  46        7       42 1
  47       10       43 1
  48       10       44 1
  49       12       45 1
  50       15       46 1
  51       16       47 1
  52       17       48 1
  53       18       49 1
  54       19       50 1
  55       23       51 1
  56       24       52 1
  57       27       53 1
  58       28       54 1
  59       29       55 1
  60       36       56 1
  61       36       57 1
  62       36       58 1

@<TRIPOS>MOLECULE

  58   62
SMALL
USER_CHARGES
@<TRIPOS>ATOM
   1 C1          -1.2364    -4.7933     0.1870 C.3          1    LIG   0.0000
   2 O2          -1.7722    -3.7673     1.0096 O.3          1    LIG   0.0000
   3 C3          -1.0909    -2.6027     1.0038 C.ar         1    LIG   0.0000
   4 C4           0.0540    -2.4789     0.2231 C.ar         1    LIG   0.0000
   5 C5           0.7501    -1.2750     0.2236 C.ar         1    LIG   0.0000
   6 C6           0.3001    -0.2123     1.0000 C.ar         1    LIG   0.0000
   7 N7           1.0000     1.0000     1.0000 N.am         1    LIG   0.0000
   8 C8           2.3700     1.0000     1.0000 C.2          1    LIG   0.0000
   9 O9           2.9700    -0.0392     1.0000 O.2          1    LIG   0.0000
  10 C10          3.1300     2.3164     1.0000 C.3          1    LIG   0.0000
  11 C11          4.6246     2.0386     1.0000 C.2          1    LIG   0.0000
  12 C12          5.5721     2.7167     1.7015 C.2          1    LIG   0.0000
  13 N13          6.7643     2.1266     1.4010 N.pl3        1    LIG   0.0000
  14 C14          8.0070     2.5167     1.9149 C.ar         1    LIG   0.0000
  15 C15          9.1560     1.8331     1.5310 C.ar         1    LIG   0.0000
  16 C16         10.3861     2.2270     2.0470 C.ar         1    LIG   0.0000
  17 C17         10.4583     3.2945     2.9368 C.ar         1    LIG   0.0000
  18 C18          9.3041     3.9726     3.3151 C.ar         1    LIG   0.0000
  19 C19          8.0696     3.5846     2.8041 C.ar         1    LIG   0.0000
  20 N20          6.5692     1.1374     0.5570 N.2          1    LIG   0.0000
  21 C21          5.2953     1.0323     0.2727 C.2          1    LIG   0.0000
  22 C22          4.6875     0.0652    -0.6207 C.ar         1    LIG   0.0000
  23 C23          5.1416    -1.2499    -0.6209 C.ar         1    LIG   0.0000
  24 C24          4.5650    -2.1842    -1.4751 C.ar         1    LIG   0.0000
  25 C25          3.5361    -1.7852    -2.3220 C.ar         1    LIG   0.0000
  26 Cl26         2.7936    -2.9752    -3.4175 Cl           1    LIG   0.0000
  27 C27          3.0764    -0.4721    -2.3290 C.ar         1    LIG   0.0000
  28 C28          3.6592     0.4555    -1.4717 C.ar         1    LIG   0.0000
  29 C29         -0.8443    -0.3324     1.7812 C.ar         1    LIG   0.0000
  30 C30         -1.5375    -1.5377     1.7778 C.ar         1    LIG   0.0000
  31 N31         -2.6912    -1.6790     2.5596 N.pl3        1    LIG   0.0000
  32 N32         -3.7943    -0.9754     2.4769 N.2          1    LIG   0.0000
  33 N33         -4.6399    -1.3711     3.3323 N.2          1    LIG   0.0000
  34 N34         -4.1169    -2.3629     4.0171 N.2          1    LIG   0.0000
  35 C35         -2.9051    -2.5739     3.5572 C.2          1    LIG   0.0000
  36 C36         -1.9236    -3.6259     4.0531 C.3          1    LIG   0.0000
  37 H           -1.8078    -5.6108     0.2590 H            1    LIG   0.0000
  38 H           -1.2171    -4.4826    -0.7633 H            1    LIG   0.0000
  39 H           -0.3068    -5.0089     0.4862 H            1    LIG   0.0000
  40 H            0.3729    -3.2470    -0.3322 H            1    LIG   0.0000
  41 H            1.5740    -1.1733    -0.3340 H            1    LIG   0.0000
  42 H            0.5000     1.8660     1.0000 H            1    LIG   0.0000
  43 H            2.8884     2.8407     1.8165 H            1    LIG   0.0000
  44 H            2.8884     2.8407     0.1835 H            1    LIG   0.0000
  45 H            5.4242     3.4926     2.3148 H            1    LIG   0.0000
  46 H            9.0982     1.0669     0.8910 H            1    LIG   0.0000
  47 H           11.2189     1.7430     1.7784 H            1    LIG   0.0000
  48 H           11.3441     3.5754     3.3061 H            1    LIG   0.0000
  49 H            9.3618     4.7393     3.9545 H            1    LIG   0.0000
  50 H            7.2366     4.0680     3.0731 H            1    LIG   0.0000
  51 H            5.8823    -1.5234    -0.0072 H            1    LIG   0.0000
  52 H            4.8863    -3.1312    -1.4802 H            1    LIG   0.0000
  53 H            2.3360    -0.1984    -2.9429 H            1    LIG   0.0000
  54 H            3.3387     1.4027    -1.4673 H            1    LIG   0.0000
  55 H           -1.1634     0.4357     2.3364 H            1    LIG   0.0000
  56 H           -1.0758    -3.5655     3.5262 H            1    LIG   0.0000
  57 H           -1.7267    -3.4683     5.0207 H            1    LIG   0.0000
  58 H           -2.3234    -4.5353     3.9381 H            1    LIG   0.0000
@<TRIPOS>BOND
   1        1        2 1
   2        2        3 1
   3        3        4 ar
   4        4        5 ar
   5        5        6 ar
   6        6        7 1
   7        7        8 am
   8        8        9 2
   9        8       10 1
  10       10       11 1
  11       11       12 2
  12       12       13 1
  13       13       14 1
  14       14       15 ar
  15       15       16 ar
  16       16       17 ar
  17       17       18 ar
  18       18       19 ar
  19       19       14 ar
  20       13       20 1
  21       20       21 2
  22       21       11 1
  23       21       22 1
  24       22       23 ar
  25       23       24 ar
  26       24       25 ar
  27       25       26 1
  28       25       27 ar
  29       27       28 ar
  30       28       22 ar
  31        6       29 ar
  32       29       30 ar
  33       30        3 ar
  34       30       31 1
  35       31       32 1
  36       32       33 2
  37       33       34 1
  38       34       35 2
  39       35       31 1
  40       35       36 1
  41        1       37 1
  42        1       38 1
  43        1       39 1
  44        4       40 1
  45        5       41 1
  46        7       42 1
  47       10       43 1
  48       10       44 1
  49       12       45 1
  50       15       46 1
  51       16       47 1
  52       17       48 1
  53       18       49 1
  54       19       50 1
  55       23       51 1
  56       24       52 1
  57       27       53 1
  58       28       54 1
  59       29       55 1
  60       36       56 1
  61       36       57 1
  62       36       58 1

@<TRIPOS>MOLECULE

  58   62
SMALL
USER_CHARGES
@<TRIPOS>ATOM
   1 C1          -1.5187    -4.6303     2.0865 C.3          1    LIG   0.0000
   2 O2          -1.7630    -3.7726     0.9814 O.3          1    LIG   0.0000
   3 C3          -1.0845    -2.6064     0.9901 C.ar         1    LIG   0.0000
   4 C4          -0.2187    -2.3214     2.0411 C.ar         1    LIG   0.0000
   5 C5           0.4761    -1.1167     2.0419 C.ar         1    LIG   0.0000
   6 C6           0.3001    -0.2123     1.0000 C.ar         1    LIG   0.0000
   7 N7           1.0000     1.0000     1.0000 N.am         1    LIG   0.0000
   8 C8           2.3700     1.0000     1.0000 C.2          1    LIG   0.0000
   9 O9           2.9700    -0.0392     1.0000 O.2          1    LIG   0.0000
  10 C10          3.1300     2.3164     1.0000 C.3          1    LIG   0.0000
  11 C11          4.4583     2.1346     0.2834 C.2          1    LIG   0.0000
  12 C12          4.6549     2.1224    -1.0623 C.2          1    LIG   0.0000
  13 N13          5.9925     1.9347    -1.2505 N.pl3        1    LIG   0.0000
  14 C14          6.6270     1.8616    -2.4967 C.ar         1    LIG   0.0000
  15 C15          7.9454     2.2864    -2.6239 C.ar         1    LIG   0.0000
  16 C16          8.5674     2.2109    -3.8656 C.ar         1    LIG   0.0000
  17 C17          7.8718     1.7143    -4.9638 C.ar         1    LIG   0.0000
  18 C18          6.5537     1.2914    -4.8274 C.ar         1    LIG   0.0000
  19 C19          5.9238     1.3642    -3.5890 C.ar         1    LIG   0.0000
  20 N20          6.5943     1.8332    -0.0859 N.2          1    LIG   0.0000
  21 C21          5.7212     1.9440     0.8836 C.2          1    LIG   0.0000
  22 C22          5.9983     1.8824     2.3056 C.ar         1    LIG   0.0000
  23 C23          6.5680     0.7336     2.8453 C.ar         1    LIG   0.0000
  24 C24          6.8366     0.6654     4.2085 C.ar         1    LIG   0.0000
  25 C25          6.5284     1.7553     5.0162 C.ar         1    LIG   0.0000
  26 Cl26         6.8694     1.6752     6.7612 Cl           1    LIG   0.0000
  27 C27          5.9578     2.9077     4.4851 C.ar         1    LIG   0.0000
  28 C28          5.6924     2.9668     3.1209 C.ar         1    LIG   0.0000
  29 C29         -0.5643    -0.4941    -0.0525 C.ar         1    LIG   0.0000
  30 C30         -1.2569    -1.6997    -0.0496 C.ar         1    LIG   0.0000
  31 N31         -2.1337    -2.0009    -1.0998 N.pl3        1    LIG   0.0000
  32 N32         -2.5738    -3.1856    -1.4482 N.2          1    LIG   0.0000
  33 N33         -3.3561    -3.0959    -2.4398 N.2          1    LIG   0.0000
  34 N34         -3.4607    -1.8322    -2.7836 N.2          1    LIG   0.0000
  35 C35         -2.7096    -1.1300    -1.9667 C.2          1    LIG   0.0000
  36 C36         -2.5202     0.3798    -1.9903 C.3          1    LIG   0.0000
  37 H           -2.0639    -5.4629     1.9892 H            1    LIG   0.0000
  38 H           -0.5480    -4.8689     2.1150 H            1    LIG   0.0000
  39 H           -1.7720    -4.1630     2.9335 H            1    LIG   0.0000
  40 H           -0.0973    -2.9755     2.7877 H            1    LIG   0.0000
  41 H            1.1020    -0.9008     2.7913 H            1    LIG   0.0000
  42 H            0.5000     1.8660     1.0000 H            1    LIG   0.0000
  43 H            3.2967     2.6050     1.9428 H            1    LIG   0.0000
  44 H            2.5896     3.0133     0.5286 H            1    LIG   0.0000
  45 H            3.9583     2.2297    -1.7717 H            1    LIG   0.0000
  46 H            8.4405     2.6422    -1.8312 H            1    LIG   0.0000
  47 H            9.5149     2.5136    -3.9693 H            1    LIG   0.0000
  48 H            8.3217     1.6612    -5.8553 H            1    LIG   0.0000
  49 H            6.0586     0.9350    -5.6198 H            1    LIG   0.0000
  50 H            4.9761     1.0623    -3.4853 H            1    LIG   0.0000
  51 H            6.7843    -0.0429     2.2535 H            1    LIG   0.0000
  52 H            7.2462    -0.1571     4.6030 H            1    LIG   0.0000
  53 H            5.7411     3.6841     5.0769 H            1    LIG   0.0000
  54 H            5.2817     3.7889     2.7265 H            1    LIG   0.0000
  55 H           -0.6856     0.1598    -0.7992 H            1    LIG   0.0000
  56 H           -1.8958     0.6490    -1.2570 H            1    LIG   0.0000
  57 H           -2.1365     0.6539    -2.8722 H            1    LIG   0.0000
  58 H           -3.4038     0.8288    -1.8573 H            1    LIG   0.0000
@<TRIPOS>BOND
   1        1        2 1
   2        2        3 1
   3        3        4 ar
   4        4        5 ar
   5        5        6 ar
   6        6        7 1
   7        7        8 am
   8        8        9 2
   9        8       10 1
  10       10       11 1
  11       11       12 2
  12       12       13 1
  13       13       14 1
  14       14       15 ar
  15       15       16 ar
  16       16       17 ar
  17       17       18 ar
  18       18       19 ar
  19       19       14 ar
  20       13       20 1
  21       20       21 2
  22       21       11 1
  23       21       22 1
  24       22       23 ar
  25       23       24 ar
  26       24       25 ar
  27       25       26 1
  28       25       27 ar
  29       27       28 ar
  30       28       22 ar
  31        6       29 ar
  32       29       30 ar
  33       30        3 ar
  34       30       31 1
  35       31       32 1
  36       32       33 2
  37       33       34 1
  38       34       35 2
  39       35       31 1
  40       35       36 1
  41        1       37 1
  42        1       38 1
  43        1       39 1
  44        4       40 1
  45        5       41 1
  46        7       42 1
  47       10       43 1
  48       10       44 1
  49       12       45 1
  50       15       46 1
  51       16       47 1
  52       17       48 1
  53       18       49 1
  54       19       50 1
  55       23       51 1
  56       24       52 1
  57       27       53 1
  58       28       54 1
  59       29       55 1
  60       36       56 1
  61       36       57 1
  62       36       58 1

@<TRIPOS>MOLECULE

  58   62
SMALL
USER_CHARGES
@<TRIPOS>ATOM
   1 C1          -1.2364    -4.7933     0.1870 C.3          1    LIG   0.0000
   2 O2          -1.7722    -3.7673     1.0096 O.3          1    LIG   0.0000
   3 C3          -1.0909    -2.6027     1.0038 C.ar         1    LIG   0.0000
   4 C4           0.0540    -2.4789     0.2231 C.ar         1    LIG   0.0000
   5 C5           0.7501    -1.2750     0.2236 C.ar         1    LIG   0.0000
   6 C6           0.3001    -0.2123     1.0000 C.ar         1    LIG   0.0000
   7 N7           1.0000     1.0000     1.0000 N.am         1    LIG   0.0000
   8 C8           2.3700     1.0000     1.0000 C.2          1    LIG   0.0000
   9 O9           2.9700    -0.0392     1.0000 O.2          1    LIG   0.0000
  10 C10          3.1300     2.3164     1.0000 C.3          1    LIG   0.0000
  11 C11          4.4583     2.1346     0.2834 C.2          1    LIG   0.0000
  12 C12          4.6326     1.7469    -1.0086 C.2          1    LIG   0.0000
  13 N13          5.9795     1.7207    -1.2204 N.pl3        1    LIG   0.0000
  14 C14          6.5971     1.3736    -2.4282 C.ar         1    LIG   0.0000
  15 C15          7.9851     1.3849    -2.5198 C.ar         1    LIG   0.0000
  16 C16          8.5900     1.0394    -3.7236 C.ar         1    LIG   0.0000
  17 C17          7.8085     0.6871    -4.8198 C.ar         1    LIG   0.0000
  18 C18          6.4211     0.6782    -4.7191 C.ar         1    LIG   0.0000
  19 C19          5.8079     1.0231    -3.5188 C.ar         1    LIG   0.0000
  20 N20          6.6084     2.0704    -0.1200 N.2          1    LIG   0.0000
  21 C21          5.7447     2.3323     0.8287 C.2          1    LIG   0.0000
  22 C22          6.0511     2.7472     2.1841 C.ar         1    LIG   0.0000
  23 C23          7.1214     2.1648     2.8554 C.ar         1    LIG   0.0000
  24 C24          7.4221     2.5560     4.1559 C.ar         1    LIG   0.0000
  25 C25          6.6413     3.5305     4.7691 C.ar         1    LIG   0.0000
  26 Cl26         7.0203     4.0361     6.4329 Cl           1    LIG   0.0000
  27 C27          5.5686     4.1176     4.1055 C.ar         1    LIG   0.0000
  28 C28          5.2751     3.7199     2.8053 C.ar         1    LIG   0.0000
  29 C29         -0.8443    -0.3324     1.7812 C.ar         1    LIG   0.0000
  30 C30         -1.5375    -1.5377     1.7778 C.ar         1    LIG   0.0000
  31 N31         -2.6912    -1.6790     2.5596 N.pl3        1    LIG   0.0000
  32 N32         -2.7845    -1.5583     3.8617 N.2          1    LIG   0.0000
  33 N33         -3.9777    -1.7455     4.2417 N.2          1    LIG   0.0000
  34 N34         -4.7224    -1.9986     3.1893 N.2          1    LIG   0.0000
  35 C35         -3.9466    -1.9642     2.1303 C.2          1    LIG   0.0000
  36 C36         -4.3769    -2.2019     0.6901 C.3          1    LIG   0.0000
  37 H           -1.8078    -5.6108     0.2590 H            1    LIG   0.0000
  38 H           -1.2171    -4.4826    -0.7633 H            1    LIG   0.0000
  39 H           -0.3068    -5.0089     0.4862 H            1    LIG   0.0000
  40 H            0.3729    -3.2470    -0.3322 H            1    LIG   0.0000
  41 H            1.5740    -1.1733    -0.3340 H            1    LIG   0.0000
  42 H            0.5000     1.8660     1.0000 H            1    LIG   0.0000
  43 H            3.2967     2.6050     1.9428 H            1    LIG   0.0000
  44 H            2.5896     3.0133     0.5286 H            1    LIG   0.0000
  45 H            3.9165     1.5254    -1.6705 H            1    LIG   0.0000
  46 H            8.5418     1.6387    -1.7288 H            1    LIG   0.0000
  47 H            9.5870     1.0442    -3.8015 H            1    LIG   0.0000
  48 H            8.2463     0.4392    -5.6840 H            1    LIG   0.0000
  49 H            5.8642     0.4238    -5.5098 H            1    LIG   0.0000
  50 H            4.8110     1.0191    -3.4409 H            1    LIG   0.0000
  51 H            7.6744     1.4651     2.4030 H            1    LIG   0.0000
  52 H            8.1902     2.1417     4.6442 H            1    LIG   0.0000
  53 H            5.0153     4.8170     4.5579 H            1    LIG   0.0000
  54 H            4.5064     4.1334     2.3174 H            1    LIG   0.0000
  55 H           -1.1634     0.4357     2.3364 H            1    LIG   0.0000
  56 H           -3.5842    -2.1151     0.0867 H            1    LIG   0.0000
  57 H           -4.7619    -3.1209     0.6045 H            1    LIG   0.0000
  58 H           -5.0674    -1.5260     0.4326 H            1    LIG   0.0000
@<TRIPOS>BOND
   1        1        2 1
   2        2        3 1
   3        3        4 ar
   4        4        5 ar
   5        5        6 ar
   6        6        7 1
   7        7        8 am
   8        8        9 2
   9        8       10 1
  10       10       11 1
  11       11       12 2
  12       12       13 1
  13       13       14 1
  14       14       15 ar
  15       15       16 ar
  16       16       17 ar
  17       17       18 ar
  18       18       19 ar
  19       19       14 ar
  20       13       20 1
  21       20       21 2
  22       21       11 1
  23       21       22 1
  24       22       23 ar
  25       23       24 ar
  26       24       25 ar
  27       25       26 1
  28       25       27 ar
  29       27       28 ar
  30       28       22 ar
  31        6       29 ar
  32       29       30 ar
  33       30        3 ar
  34       30       31 1
  35       31       32 1
  36       32       33 2
  37       33       34 1
  38       34       35 2
  39       35       31 1
  40       35       36 1
  41        1       37 1
  42        1       38 1
  43        1       39 1
  44        4       40 1
  45        5       41 1
  46        7       42 1
  47       10       43 1
  48       10       44 1
  49       12       45 1
  50       15       46 1
  51       16       47 1
  52       17       48 1
  53       18       49 1
  54       19       50 1
  55       23       51 1
  56       24       52 1
  57       27       53 1
  58       28       54 1
  59       29       55 1
  60       36       56 1
  61       36       57 1
  62       36       58 1

@<TRIPOS>MOLECULE

  58   62
SMALL
USER_CHARGES
@<TRIPOS>ATOM
   1 C1          -1.0373    -4.9073     1.4183 C.3          1    LIG   0.0000
   2 O2          -1.7681    -3.7697     0.9848 O.3          1    LIG   0.0000
   3 C3          -1.0874    -2.6048     0.9914 C.ar         1    LIG   0.0000
   4 C4           0.0581    -2.4812     1.7713 C.ar         1    LIG   0.0000
   5 C5           0.7531    -1.2767     1.7723 C.ar         1    LIG   0.0000
   6 C6           0.3001    -0.2123     1.0000 C.ar         1    LIG   0.0000
   7 N7           1.0000     1.0000     1.0000 N.am         1    LIG   0.0000
   8 C8           2.3700     1.0000     1.0000 C.2          1    LIG   0.0000
   9 O9           2.9700    -0.0392     1.0000 O.2          1    LIG   0.0000
  10 C10          3.1300     2.3164     1.0000 C.3          1    LIG   0.0000
  11 C11          4.4001     2.1682     0.1779 C.2          1    LIG   0.0000
  12 C12          4.4757     1.8374    -1.1391 C.2          1    LIG   0.0000
  13 N13          5.8028     1.8227    -1.4530 N.pl3        1    LIG   0.0000
  14 C14          6.3269     1.5296    -2.7179 C.ar         1    LIG   0.0000
  15 C15          7.5825     0.9401    -2.8231 C.ar         1    LIG   0.0000
  16 C16          8.0956     0.6531    -4.0836 C.ar         1    LIG   0.0000
  17 C17          7.3547     0.9551    -5.2223 C.ar         1    LIG   0.0000
  18 C18          6.0998     1.5443    -5.1077 C.ar         1    LIG   0.0000
  19 C19          5.5795     1.8353    -3.8506 C.ar         1    LIG   0.0000
  20 N20          6.5136     2.1252    -0.3890 N.2          1    LIG   0.0000
  21 C21          5.7243     2.3441     0.6327 C.2          1    LIG   0.0000
  22 C22          6.1328     2.7000     1.9778 C.ar         1    LIG   0.0000
  23 C23          6.4737     4.0177     2.2662 C.ar         1    LIG   0.0000
  24 C24          6.8675     4.3680     3.5535 C.ar         1    LIG   0.0000
  25 C25          6.9148     3.3874     4.5392 C.ar         1    LIG   0.0000
  26 Cl26         7.4176     3.8284     6.1885 Cl           1    LIG   0.0000
  27 C27          6.5765     2.0672     4.2594 C.ar         1    LIG   0.0000
  28 C28          6.1842     1.7260     2.9692 C.ar         1    LIG   0.0000
  29 C29         -0.8443    -0.3324     0.2188 C.ar         1    LIG   0.0000
  30 C30         -1.5362    -1.5384     0.2205 C.ar         1    LIG   0.0000
  31 N31         -2.6923    -1.6784    -0.5582 N.pl3        1    LIG   0.0000
  32 N32         -2.7894    -1.5556    -1.8598 N.2          1    LIG   0.0000
  33 N33         -3.9820    -1.7509    -2.2375 N.2          1    LIG   0.0000
  34 N34         -4.7221    -2.0135    -1.1842 N.2          1    LIG   0.0000
  35 C35         -3.9446    -1.9737    -0.1267 C.2          1    LIG   0.0000
  36 C36         -4.3708    -2.2130     1.3146 C.3          1    LIG   0.0000
  37 H           -1.6243    -5.7159     1.3776 H            1    LIG   0.0000
  38 H           -0.2445    -5.0407     0.8237 H            1    LIG   0.0000
  39 H           -0.7286    -4.7666     2.3590 H            1    LIG   0.0000
  40 H            0.3781    -3.2500     2.3250 H            1    LIG   0.0000
  41 H            1.5783    -1.1758     2.3280 H            1    LIG   0.0000
  42 H            0.5000     1.8660     1.0000 H            1    LIG   0.0000
  43 H            3.3678     2.5639     1.9392 H            1    LIG   0.0000
  44 H            2.5567     3.0323     0.6016 H            1    LIG   0.0000
  45 H            3.7114     1.6438    -1.7542 H            1    LIG   0.0000
  46 H            8.1104     0.7251    -2.0015 H            1    LIG   0.0000
  47 H            8.9972     0.2296    -4.1717 H            1    LIG   0.0000
  48 H            7.7262     0.7475    -6.1272 H            1    LIG   0.0000
  49 H            5.5715     1.7588    -5.9292 H            1    LIG   0.0000
  50 H            4.6782     2.2594    -3.7623 H            1    LIG   0.0000
  51 H            6.4356     4.7127     1.5483 H            1    LIG   0.0000
  52 H            7.1135     5.3133     3.7678 H            1    LIG   0.0000
  53 H            6.6149     1.3720     4.9772 H            1    LIG   0.0000
  54 H            5.9393     0.7805     2.7546 H            1    LIG   0.0000
  55 H           -1.1643     0.4362    -0.3351 H            1    LIG   0.0000
  56 H           -3.5774    -2.1211     1.9164 H            1    LIG   0.0000
  57 H           -5.0648    -1.5410     1.5729 H            1    LIG   0.0000
  58 H           -4.7501    -3.1342     1.4014 H            1    LIG   0.0000
@<TRIPOS>BOND
   1        1        2 1
   2        2        3 1
   3        3        4 ar
   4        4        5 ar
   5        5        6 ar
   6        6        7 1
   7        7        8 am
   8        8        9 2
   9        8       10 1
  10       10       11 1
  11       11       12 2
  12       12       13 1
  13       13       14 1
  14       14       15 ar
  15       15       16 ar
  16       16       17 ar
  17       17       18 ar
  18       18       19 ar
  19       19       14 ar
  20       13       20 1
  21       20       21 2
  22       21       11 1
  23       21       22 1
  24       22       23 ar
  25       23       24 ar
  26       24       25 ar
  27       25       26 1
  28       25       27 ar
  29       27       28 ar
  30       28       22 ar
  31        6       29 ar
  32       29       30 ar
  33       30        3 ar
  34       30       31 1
  35       31       32 1
  36       32       33 2
  37       33       34 1
  38       34       35 2
  39       35       31 1
  40       35       36 1
  41        1       37 1
  42        1       38 1
  43        1       39 1
  44        4       40 1
  45        5       41 1
  46        7       42 1
  47       10       43 1
  48       10       44 1
  49       12       45 1
  50       15       46 1
  51       16       47 1
  52       17       48 1
  53       18       49 1
  54       19       50 1
  55       23       51 1
  56       24       52 1
  57       27       53 1
  58       28       54 1
  59       29       55 1
  60       36       56 1
  61       36       57 1
  62       36       58 1

@<TRIPOS>MOLECULE

  58   62
SMALL
USER_CHARGES
@<TRIPOS>ATOM
   1 C1          -1.2300    -4.7970     1.8041 C.3          1    LIG   0.0000
   2 O2          -1.7681    -3.7697     0.9848 O.3          1    LIG   0.0000
   3 C3          -1.0874    -2.6048     0.9914 C.ar         1    LIG   0.0000
   4 C4           0.0581    -2.4812     1.7713 C.ar         1    LIG   0.0000
   5 C5           0.7531    -1.2767     1.7723 C.ar         1    LIG   0.0000
   6 C6           0.3001    -0.2123     1.0000 C.ar         1    LIG   0.0000
   7 N7           1.0000     1.0000     1.0000 N.am         1    LIG   0.0000
   8 C8           2.3700     1.0000     1.0000 C.2          1    LIG   0.0000
   9 O9           2.9700    -0.0392     1.0000 O.2          1    LIG   0.0000
  10 C10          3.1300     2.3164     1.0000 C.3          1    LIG   0.0000
  11 C11          4.4001     2.1682     0.1779 C.2          1    LIG   0.0000
  12 C12          5.6207     2.6887     0.4764 C.2          1    LIG   0.0000
  13 N13          6.4557     2.3047    -0.5312 N.pl3        1    LIG   0.0000
  14 C14          7.8157     2.6272    -0.6157 C.ar         1    LIG   0.0000
  15 C15          8.5645     2.1745    -1.6970 C.ar         1    LIG   0.0000
  16 C16          9.9150     2.4990    -1.7723 C.ar         1    LIG   0.0000
  17 C17         10.5030     3.2687    -0.7731 C.ar         1    LIG   0.0000
  18 C18          9.7464     3.7173     0.3045 C.ar         1    LIG   0.0000
  19 C19          8.3951     3.3967     0.3879 C.ar         1    LIG   0.0000
  20 N20          5.7904     1.5871    -1.4093 N.2          1    LIG   0.0000
  21 C21          4.5398     1.4685    -1.0396 C.2          1    LIG   0.0000
  22 C22          3.4950     0.7537    -1.7469 C.ar         1    LIG   0.0000
  23 C23          2.8658     1.3542    -2.8327 C.ar         1    LIG   0.0000
  24 C24          1.8620     0.6763    -3.5166 C.ar         1    LIG   0.0000
  25 C25          1.5004    -0.6008    -3.1001 C.ar         1    LIG   0.0000
  26 Cl26         0.2169    -1.4742    -3.9703 Cl           1    LIG   0.0000
  27 C27          2.1236    -1.2085    -2.0147 C.ar         1    LIG   0.0000
  28 C28          3.1261    -0.5230    -1.3367 C.ar         1    LIG   0.0000
  29 C29         -0.8443    -0.3324     0.2188 C.ar         1    LIG   0.0000
  30 C30         -1.5362    -1.5384     0.2205 C.ar         1    LIG   0.0000
  31 N31         -2.6923    -1.6784    -0.5582 N.pl3        1    LIG   0.0000
  32 N32         -3.3492    -2.7851    -0.8077 N.2          1    LIG   0.0000
  33 N33         -4.3521    -2.5510    -1.5443 N.2          1    LIG   0.0000
  34 N34         -4.3920    -1.2647    -1.8089 N.2          1    LIG   0.0000
  35 C35         -3.3704    -0.6990    -1.2083 C.2          1    LIG   0.0000
  36 C36         -3.0137     0.7802    -1.2383 C.3          1    LIG   0.0000
  37 H           -1.8011    -5.6146     1.7318 H            1    LIG   0.0000
  38 H           -0.3010    -5.0116     1.5026 H            1    LIG   0.0000
  39 H           -1.2088    -4.4882     2.7550 H            1    LIG   0.0000
  40 H            0.3781    -3.2500     2.3250 H            1    LIG   0.0000
  41 H            1.5783    -1.1758     2.3280 H            1    LIG   0.0000
  42 H            0.5000     1.8660     1.0000 H            1    LIG   0.0000
  43 H            3.3678     2.5639     1.9392 H            1    LIG   0.0000
  44 H            2.5567     3.0323     0.6016 H            1    LIG   0.0000
  45 H            5.8583     3.2420     1.2748 H            1    LIG   0.0000
  46 H            8.1367     1.6220    -2.4122 H            1    LIG   0.0000
  47 H           10.4635     2.1791    -2.5448 H            1    LIG   0.0000
  48 H           11.4741     3.5003    -0.8301 H            1    LIG   0.0000
  49 H           10.1739     4.2704     1.0195 H            1    LIG   0.0000
  50 H            7.8465     3.7159     1.1607 H            1    LIG   0.0000
  51 H            3.1352     2.2729    -3.1215 H            1    LIG   0.0000
  52 H            1.4057     1.1018    -4.2981 H            1    LIG   0.0000
  53 H            1.8540    -2.1271    -1.7256 H            1    LIG   0.0000
  54 H            3.5816    -0.9480    -0.5544 H            1    LIG   0.0000
  55 H           -1.1643     0.4362    -0.3351 H            1    LIG   0.0000
  56 H           -2.1878     0.9349    -0.6961 H            1    LIG   0.0000
  57 H           -2.8505     1.0646    -2.1830 H            1    LIG   0.0000
  58 H           -3.7684     1.3129    -0.8554 H            1    LIG   0.0000
@<TRIPOS>BOND
   1        1        2 1
   2        2        3 1
   3        3        4 ar
   4        4        5 ar
   5        5        6 ar
   6        6        7 1
   7        7        8 am
   8        8        9 2
   9        8       10 1
  10       10       11 1
  11       11       12 2
  12       12       13 1
  13       13       14 1
  14       14       15 ar
  15       15       16 ar
  16       16       17 ar
  17       17       18 ar
  18       18       19 ar
  19       19       14 ar
  20       13       20 1
  21       20       21 2
  22       21       11 1
  23       21       22 1
  24       22       23 ar
  25       23       24 ar
  26       24       25 ar
  27       25       26 1
  28       25       27 ar
  29       27       28 ar
  30       28       22 ar
  31        6       29 ar
  32       29       30 ar
  33       30        3 ar
  34       30       31 1
  35       31       32 1
  36       32       33 2
  37       33       34 1
  38       34       35 2
  39       35       31 1
  40       35       36 1
  41        1       37 1
  42        1       38 1
  43        1       39 1
  44        4       40 1
  45        5       41 1
  46        7       42 1
  47       10       43 1
  48       10       44 1
  49       12       45 1
  50       15       46 1
  51       16       47 1
  52       17       48 1
  53       18       49 1
  54       19       50 1
  55       23       51 1
  56       24       52 1
  57       27       53 1
  58       28       54 1
  59       29       55 1
  60       36       56 1
  61       36       57 1
  62       36       58 1

@<TRIPOS>MOLECULE

  58   62
SMALL
USER_CHARGES
@<TRIPOS>ATOM
   1 C1          -1.8805    -4.4209     2.2393 C.3          1    LIG   0.0000
   2 O2          -1.7630    -3.7726     0.9814 O.3          1    LIG   0.0000
   3 C3          -1.0845    -2.6064     0.9901 C.ar         1    LIG   0.0000
   4 C4          -0.2187    -2.3214     2.0411 C.ar         1    LIG   0.0000
   5 C5           0.4761    -1.1167     2.0419 C.ar         1    LIG   0.0000
   6 C6           0.3001    -0.2123     1.0000 C.ar         1    LIG   0.0000
   7 N7           1.0000     1.0000     1.0000 N.am         1    LIG   0.0000
   8 C8           2.3700     1.0000     1.0000 C.2          1    LIG   0.0000
   9 O9           2.9700    -0.0392     1.0000 O.2          1    LIG   0.0000
  10 C10          3.1300     2.3164     1.0000 C.3          1    LIG   0.0000
  11 C11          4.4001     2.1682     0.1779 C.2          1    LIG   0.0000
  12 C12          5.6207     2.6887     0.4764 C.2          1    LIG   0.0000
  13 N13          6.4557     2.3047    -0.5312 N.pl3        1    LIG   0.0000
  14 C14          7.8157     2.6272    -0.6157 C.ar         1    LIG   0.0000
  15 C15          8.4156     2.7590    -1.8637 C.ar         1    LIG   0.0000
  16 C16          9.7672     3.0787    -1.9381 C.ar         1    LIG   0.0000
  17 C17         10.5043     3.2635    -0.7723 C.ar         1    LIG   0.0000
  18 C18          9.8960     3.1301     0.4716 C.ar         1    LIG   0.0000
  19 C19          8.5447     2.8097     0.5550 C.ar         1    LIG   0.0000
  20 N20          5.7904     1.5871    -1.4093 N.2          1    LIG   0.0000
  21 C21          4.5398     1.4685    -1.0396 C.2          1    LIG   0.0000
  22 C22          3.4950     0.7537    -1.7469 C.ar         1    LIG   0.0000
  23 C23          3.4094    -0.6300    -1.6304 C.ar         1    LIG   0.0000
  24 C24          2.4109    -1.3240    -2.3059 C.ar         1    LIG   0.0000
  25 C25          1.5074    -0.6178    -3.0934 C.ar         1    LIG   0.0000
  26 Cl26         0.2272    -1.4991    -3.9604 Cl           1    LIG   0.0000
  27 C27          1.5861     0.7658    -3.2162 C.ar         1    LIG   0.0000
  28 C28          2.5881     1.4515    -2.5374 C.ar         1    LIG   0.0000
  29 C29         -0.5643    -0.4941    -0.0525 C.ar         1    LIG   0.0000
  30 C30         -1.2569    -1.6997    -0.0496 C.ar         1    LIG   0.0000
  31 N31         -2.1337    -2.0009    -1.0998 N.pl3        1    LIG   0.0000
  32 N32         -3.0834    -1.2364    -1.5817 N.2          1    LIG   0.0000
  33 N33         -3.6834    -1.8181    -2.5330 N.2          1    LIG   0.0000
  34 N34         -3.1422    -3.0016    -2.7141 N.2          1    LIG   0.0000
  35 C35         -2.1766    -3.1407    -1.8350 C.2          1    LIG   0.0000
  36 C36         -1.2753    -4.3560    -1.6715 C.3          1    LIG   0.0000
  37 H           -2.3961    -5.2707     2.1295 H            1    LIG   0.0000
  38 H           -0.9688    -4.6277     2.5942 H            1    LIG   0.0000
  39 H           -2.3594    -3.8209     2.8801 H            1    LIG   0.0000
  40 H           -0.0973    -2.9755     2.7877 H            1    LIG   0.0000
  41 H            1.1020    -0.9008     2.7913 H            1    LIG   0.0000
  42 H            0.5000     1.8660     1.0000 H            1    LIG   0.0000
  43 H            3.3678     2.5639     1.9392 H            1    LIG   0.0000
  44 H            2.5567     3.0323     0.6016 H            1    LIG   0.0000
  45 H            5.8583     3.2420     1.2748 H            1    LIG   0.0000
  46 H            7.8811     2.6253    -2.6982 H            1    LIG   0.0000
  47 H           10.2095     3.1759    -2.8297 H            1    LIG   0.0000
  48 H           11.4758     3.4934    -0.8290 H            1    LIG   0.0000
  49 H           10.4302     3.2644     1.3062 H            1    LIG   0.0000
  50 H            8.1024     2.7118     1.4465 H            1    LIG   0.0000
  51 H            4.0655    -1.1255    -1.0612 H            1    LIG   0.0000
  52 H            2.3434    -2.3186    -2.2264 H            1    LIG   0.0000
  53 H            0.9303     1.2614    -3.7857 H            1    LIG   0.0000
  54 H            2.6564     2.4459    -2.6178 H            1    LIG   0.0000
  55 H           -0.6856     0.1598    -0.7992 H            1    LIG   0.0000
  56 H           -0.6279    -4.1930    -0.9270 H            1    LIG   0.0000
  57 H           -1.8329    -5.1584    -1.4587 H            1    LIG   0.0000
  58 H           -0.7728    -4.5151    -2.5213 H            1    LIG   0.0000
@<TRIPOS>BOND
   1        1        2 1
   2        2        3 1
   3        3        4 ar
   4        4        5 ar
   5        5        6 ar
   6        6        7 1
   7        7        8 am
   8        8        9 2
   9        8       10 1
  10       10       11 1
  11       11       12 2
  12       12       13 1
  13       13       14 1
  14       14       15 ar
  15       15       16 ar
  16       16       17 ar
  17       17       18 ar
  18       18       19 ar
  19       19       14 ar
  20       13       20 1
  21       20       21 2
  22       21       11 1
  23       21       22 1
  24       22       23 ar
  25       23       24 ar
  26       24       25 ar
  27       25       26 1
  28       25       27 ar
  29       27       28 ar
  30       28       22 ar
  31        6       29 ar
  32       29       30 ar
  33       30        3 ar
  34       30       31 1
  35       31       32 1
  36       32       33 2
  37       33       34 1
  38       34       35 2
  39       35       31 1
  40       35       36 1
  41        1       37 1
  42        1       38 1
  43        1       39 1
  44        4       40 1
  45        5       41 1
  46        7       42 1
  47       10       43 1
  48       10       44 1
  49       12       45 1
  50       15       46 1
  51       16       47 1
  52       17       48 1
  53       18       49 1
  54       19       50 1
  55       23       51 1
  56       24       52 1
  57       27       53 1
  58       28       54 1
  59       29       55 1
  60       36       56 1
  61       36       57 1
  62       36       58 1

@<TRIPOS>MOLECULE

  58   62
SMALL
USER_CHARGES
@<TRIPOS>ATOM
   1 C1          -1.8893    -4.4154    -0.2439 C.3          1    LIG   0.0000
   2 O2          -1.7685    -3.7695     1.0149 O.3          1    LIG   0.0000
   3 C3          -1.0893    -2.6037     1.0067 C.ar         1    LIG   0.0000
   4 C4          -0.2241    -2.3183    -0.0448 C.ar         1    LIG   0.0000
   5 C5           0.4721    -1.1144    -0.0446 C.ar         1    LIG   0.0000
   6 C6           0.3001    -0.2123     1.0000 C.ar         1    LIG   0.0000
   7 N7           1.0000     1.0000     1.0000 N.am         1    LIG   0.0000
   8 C8           2.3700     1.0000     1.0000 C.2          1    LIG   0.0000
   9 O9           2.9700    -0.0392     1.0000 O.2          1    LIG   0.0000
  10 C10          3.1300     2.3164     1.0000 C.3          1    LIG   0.0000
  11 C11          4.4001     2.1682     1.8221 C.2          1    LIG   0.0000
  12 C12          5.6545     1.9591     1.3398 C.2          1    LIG   0.0000
  13 N13          6.4748     1.8920     2.4273 N.pl3        1    LIG   0.0000
  14 C14          7.8592     1.6877     2.3790 C.ar         1    LIG   0.0000
  15 C15          8.5894     1.6386     3.5620 C.ar         1    LIG   0.0000
  16 C16          9.9643     1.4359     3.5046 C.ar         1    LIG   0.0000
  17 C17         10.5950     1.2845     2.2734 C.ar         1    LIG   0.0000
  18 C18          9.8568     1.3348     1.0954 C.ar         1    LIG   0.0000
  19 C19          8.4813     1.5377     1.1439 C.ar         1    LIG   0.0000
  20 N20          5.7690     2.0483     3.5255 N.2          1    LIG   0.0000
  21 C21          4.5051     2.2183     3.2284 C.2          1    LIG   0.0000
  22 C22          3.4177     2.4199     4.1665 C.ar         1    LIG   0.0000
  23 C23          3.3895     1.6923     5.3520 C.ar         1    LIG   0.0000
  24 C24          2.3499     1.8785     6.2573 C.ar         1    LIG   0.0000
  25 C25          1.3474     2.7961     5.9600 C.ar         1    LIG   0.0000
  26 Cl26         0.0143     3.0397     7.1137 Cl           1    LIG   0.0000
  27 C27          1.3673     3.5272     4.7766 C.ar         1    LIG   0.0000
  28 C28          2.4106     3.3342     3.8770 C.ar         1    LIG   0.0000
  29 C29         -0.5643    -0.4941     2.0525 C.ar         1    LIG   0.0000
  30 C30         -1.2586    -1.6987     2.0485 C.ar         1    LIG   0.0000
  31 N31         -2.1323    -2.0017     3.1008 N.pl3        1    LIG   0.0000
  32 N32         -1.9663    -2.9113     4.0302 N.2          1    LIG   0.0000
  33 N33         -2.9488    -2.9159     4.8289 N.2          1    LIG   0.0000
  34 N34         -3.8075    -1.9969     4.4491 N.2          1    LIG   0.0000
  35 C35         -3.3242    -1.4142     3.3761 C.2          1    LIG   0.0000
  36 C36         -3.9810    -0.2901     2.5880 C.3          1    LIG   0.0000
  37 H           -2.4053    -5.2650    -0.1344 H            1    LIG   0.0000
  38 H           -2.3693    -3.8139    -0.8825 H            1    LIG   0.0000
  39 H           -0.9786    -4.6222    -0.6012 H            1    LIG   0.0000
  40 H           -0.1043    -2.9715    -0.7924 H            1    LIG   0.0000
  41 H            1.0961    -0.8974    -0.7952 H            1    LIG   0.0000
  42 H            0.5000     1.8660     1.0000 H            1    LIG   0.0000
  43 H            2.5567     3.0323     1.3984 H            1    LIG   0.0000
  44 H            3.3678     2.5639     0.0608 H            1    LIG   0.0000
  45 H            5.9218     1.8719     0.3802 H            1    LIG   0.0000
  46 H            8.1309     1.7478     4.4439 H            1    LIG   0.0000
  47 H           10.4997     1.3990     4.3483 H            1    LIG   0.0000
  48 H           11.5836     1.1389     2.2353 H            1    LIG   0.0000
  49 H           10.3151     1.2249     0.2134 H            1    LIG   0.0000
  50 H            7.9458     1.5754     0.3002 H            1    LIG   0.0000
  51 H            4.1163     1.0356     5.5532 H            1    LIG   0.0000
  52 H            2.3236     1.3591     7.1114 H            1    LIG   0.0000
  53 H            0.6403     4.1837     4.5750 H            1    LIG   0.0000
  54 H            2.4364     3.8527     3.0223 H            1    LIG   0.0000
  55 H           -0.6844     0.1591     2.8000 H            1    LIG   0.0000
  56 H           -3.3954    -0.0364     1.8181 H            1    LIG   0.0000
  57 H           -4.8683    -0.5981     2.2446 H            1    LIG   0.0000
  58 H           -4.1110     0.5027     3.1834 H            1    LIG   0.0000
@<TRIPOS>BOND
   1        1        2 1
   2        2        3 1
   3        3        4 ar
   4        4        5 ar
   5        5        6 ar
   6        6        7 1
   7        7        8 am
   8        8        9 2
   9        8       10 1
  10       10       11 1
  11       11       12 2
  12       12       13 1
  13       13       14 1
  14       14       15 ar
  15       15       16 ar
  16       16       17 ar
  17       17       18 ar
  18       18       19 ar
  19       19       14 ar
  20       13       20 1
  21       20       21 2
  22       21       11 1
  23       21       22 1
  24       22       23 ar
  25       23       24 ar
  26       24       25 ar
  27       25       26 1
  28       25       27 ar
  29       27       28 ar
  30       28       22 ar
  31        6       29 ar
  32       29       30 ar
  33       30        3 ar
  34       30       31 1
  35       31       32 1
  36       32       33 2
  37       33       34 1
  38       34       35 2
  39       35       31 1
  40       35       36 1
  41        1       37 1
  42        1       38 1
  43        1       39 1
  44        4       40 1
  45        5       41 1
  46        7       42 1
  47       10       43 1
  48       10       44 1
  49       12       45 1
  50       15       46 1
  51       16       47 1
  52       17       48 1
  53       18       49 1
  54       19       50 1
  55       23       51 1
  56       24       52 1
  57       27       53 1
  58       28       54 1
  59       29       55 1
  60       36       56 1
  61       36       57 1
  62       36       58 1

@<TRIPOS>MOLECULE

  58   62
SMALL
USER_CHARGES
@<TRIPOS>ATOM
   1 C1          -1.2300    -4.7970     1.8041 C.3          1    LIG   0.0000
   2 O2          -1.7681    -3.7697     0.9848 O.3          1    LIG   0.0000
   3 C3          -1.0874    -2.6048     0.9914 C.ar         1    LIG   0.0000
   4 C4           0.0581    -2.4812     1.7713 C.ar         1    LIG   0.0000
   5 C5           0.7531    -1.2767     1.7723 C.ar         1    LIG   0.0000
   6 C6           0.3001    -0.2123     1.0000 C.ar         1    LIG   0.0000
   7 N7           1.0000     1.0000     1.0000 N.am         1    LIG   0.0000
   8 C8           2.3700     1.0000     1.0000 C.2          1    LIG   0.0000
   9 O9           2.9700    -0.0392     1.0000 O.2          1    LIG   0.0000
  10 C10          3.1300     2.3164     1.0000 C.3          1    LIG   0.0000
  11 C11          4.4001     2.1682     1.8221 C.2          1    LIG   0.0000
  12 C12          5.6545     1.9591     1.3398 C.2          1    LIG   0.0000
  13 N13          6.4748     1.8920     2.4273 N.pl3        1    LIG   0.0000
  14 C14          7.8592     1.6877     2.3790 C.ar         1    LIG   0.0000
  15 C15          8.4956     1.0343     3.4293 C.ar         1    LIG   0.0000
  16 C16          9.8712     0.8363     3.3733 C.ar         1    LIG   0.0000
  17 C17         10.5958     1.2895     2.2751 C.ar         1    LIG   0.0000
  18 C18          9.9511     1.9417     1.2291 C.ar         1    LIG   0.0000
  19 C19          8.5755     2.1444     1.2775 C.ar         1    LIG   0.0000
  20 N20          5.7690     2.0483     3.5255 N.2          1    LIG   0.0000
  21 C21          4.5051     2.2183     3.2284 C.2          1    LIG   0.0000
  22 C22          3.4177     2.4199     4.1665 C.ar         1    LIG   0.0000
  23 C23          3.2096     3.6808     4.7162 C.ar         1    LIG   0.0000
  24 C24          2.1695     3.8832     5.6174 C.ar         1    LIG   0.0000
  25 C25          1.3484     2.8130     5.9575 C.ar         1    LIG   0.0000
  26 Cl26         0.0156     3.0646     7.1099 Cl           1    LIG   0.0000
  27 C27          1.5499     1.5485     5.4134 C.ar         1    LIG   0.0000
  28 C28          2.5926     1.3554     4.5132 C.ar         1    LIG   0.0000
  29 C29         -0.8443    -0.3324     0.2188 C.ar         1    LIG   0.0000
  30 C30         -1.5362    -1.5384     0.2205 C.ar         1    LIG   0.0000
  31 N31         -2.6923    -1.6784    -0.5582 N.pl3        1    LIG   0.0000
  32 N32         -3.9273    -1.7791    -0.1301 N.2          1    LIG   0.0000
  33 N33         -4.7285    -1.8884    -1.1045 N.2          1    LIG   0.0000
  34 N34         -4.0404    -1.8624    -2.2234 N.2          1    LIG   0.0000
  35 C35         -2.7713    -1.7334    -1.9118 C.2          1    LIG   0.0000
  36 C36         -1.6066    -1.6611    -2.8886 C.3          1    LIG   0.0000
  37 H           -1.8011    -5.6146     1.7318 H            1    LIG   0.0000
  38 H           -0.3010    -5.0116     1.5026 H            1    LIG   0.0000
  39 H           -1.2088    -4.4882     2.7550 H            1    LIG   0.0000
  40 H            0.3781    -3.2500     2.3250 H            1    LIG   0.0000
  41 H            1.5783    -1.1758     2.3280 H            1    LIG   0.0000
  42 H            0.5000     1.8660     1.0000 H            1    LIG   0.0000
  43 H            2.5567     3.0323     1.3984 H            1    LIG   0.0000
  44 H            3.3678     2.5639     0.0608 H            1    LIG   0.0000
  45 H            5.9218     1.8719     0.3802 H            1    LIG   0.0000
  46 H            7.9699     0.7106     4.2159 H            1    LIG   0.0000
  47 H           10.3397     0.3681     4.1225 H            1    LIG   0.0000
  48 H           11.5847     1.1457     2.2377 H            1    LIG   0.0000
  49 H           10.4765     2.2649     0.4421 H            1    LIG   0.0000
  50 H            8.1069     2.6133     0.5287 H            1    LIG   0.0000
  51 H            3.8075     4.4415     4.4634 H            1    LIG   0.0000
  52 H            2.0140     4.7870     6.0161 H            1    LIG   0.0000
  53 H            0.9523     0.7877     5.6663 H            1    LIG   0.0000
  54 H            2.7488     0.4513     4.1154 H            1    LIG   0.0000
  55 H           -1.1643     0.4362    -0.3351 H            1    LIG   0.0000
  56 H           -0.7509    -1.5633    -2.3804 H            1    LIG   0.0000
  57 H           -1.5764    -2.4987    -3.4341 H            1    LIG   0.0000
  58 H           -1.7270    -0.8737    -3.4933 H            1    LIG   0.0000
@<TRIPOS>BOND
   1        1        2 1
   2        2        3 1
   3        3        4 ar
   4        4        5 ar
   5        5        6 ar
   6        6        7 1
   7        7        8 am
   8        8        9 2
   9        8       10 1
  10       10       11 1
  11       11       12 2
  12       12       13 1
  13       13       14 1
  14       14       15 ar
  15       15       16 ar
  16       16       17 ar
  17       17       18 ar
  18       18       19 ar
  19       19       14 ar
  20       13       20 1
  21       20       21 2
  22       21       11 1
  23       21       22 1
  24       22       23 ar
  25       23       24 ar
  26       24       25 ar
  27       25       26 1
  28       25       27 ar
  29       27       28 ar
  30       28       22 ar
  31        6       29 ar
  32       29       30 ar
  33       30        3 ar
  34       30       31 1
  35       31       32 1
  36       32       33 2
  37       33       34 1
  38       34       35 2
  39       35       31 1
  40       35       36 1
  41        1       37 1
  42        1       38 1
  43        1       39 1
  44        4       40 1
  45        5       41 1
  46        7       42 1
  47       10       43 1
  48       10       44 1
  49       12       45 1
  50       15       46 1
  51       16       47 1
  52       17       48 1
  53       18       49 1
  54       19       50 1
  55       23       51 1
  56       24       52 1
  57       27       53 1
  58       28       54 1
  59       29       55 1
  60       36       56 1
  61       36       57 1
  62       36       58 1

@<TRIPOS>MOLECULE

  58   62
SMALL
USER_CHARGES
@<TRIPOS>ATOM
   1 C1          -1.2314    -4.7957     0.1934 C.3          1    LIG   0.0000
   2 O2          -1.7685    -3.7695     1.0149 O.3          1    LIG   0.0000
   3 C3          -1.0893    -2.6037     1.0067 C.ar         1    LIG   0.0000
   4 C4          -0.2241    -2.3183    -0.0448 C.ar         1    LIG   0.0000
   5 C5           0.4721    -1.1144    -0.0446 C.ar         1    LIG   0.0000
   6 C6           0.3001    -0.2123     1.0000 C.ar         1    LIG   0.0000
   7 N7           1.0000     1.0000     1.0000 N.am         1    LIG   0.0000
   8 C8           2.3700     1.0000     1.0000 C.2          1    LIG   0.0000
   9 O9           2.9700    -0.0392     1.0000 O.2          1    LIG   0.0000
  10 C10          3.1300     2.3164     1.0000 C.3          1    LIG   0.0000
  11 C11          4.4001     2.1682     1.8221 C.2          1    LIG   0.0000
  12 C12          5.6743     2.3367     1.3773 C.2          1    LIG   0.0000
  13 N13          6.4858     2.1072     2.4491 N.pl3        1    LIG   0.0000
  14 C14          7.8841     2.1782     2.4290 C.ar         1    LIG   0.0000
  15 C15          8.6265     1.3750     3.2884 C.ar         1    LIG   0.0000
  16 C16         10.0150     1.4527     3.2622 C.ar         1    LIG   0.0000
  17 C17         10.6470     2.3266     2.3828 C.ar         1    LIG   0.0000
  18 C18          9.8966     3.1260     1.5267 C.ar         1    LIG   0.0000
  19 C19          8.5073     3.0549     1.5470 C.ar         1    LIG   0.0000
  20 N20          5.7564     1.8098     3.5019 N.2          1    LIG   0.0000
  21 C21          4.4851     1.8278     3.1889 C.2          1    LIG   0.0000
  22 C22          3.3735     1.5505     4.0781 C.ar         1    LIG   0.0000
  23 C23          2.9264     2.5399     4.9480 C.ar         1    LIG   0.0000
  24 C24          1.8614     2.2825     5.8050 C.ar         1    LIG   0.0000
  25 C25          1.2563     1.0302     5.7783 C.ar         1    LIG   0.0000
  26 Cl26        -0.1069     0.6938     6.8719 Cl           1    LIG   0.0000
  27 C27          1.6975     0.0347     4.9123 C.ar         1    LIG   0.0000
  28 C28          2.7634     0.3009     4.0591 C.ar         1    LIG   0.0000
  29 C29         -0.5643    -0.4941     2.0525 C.ar         1    LIG   0.0000
  30 C30         -1.2586    -1.6987     2.0485 C.ar         1    LIG   0.0000
  31 N31         -2.1323    -2.0017     3.1008 N.pl3        1    LIG   0.0000
  32 N32         -3.2854    -1.4345     3.3603 N.2          1    LIG   0.0000
  33 N33         -3.8168    -1.9549     4.3849 N.2          1    LIG   0.0000
  34 N34         -3.0224    -2.8962     4.8421 N.2          1    LIG   0.0000
  35 C35         -1.9671    -2.9453     4.0620 C.2          1    LIG   0.0000
  36 C36         -0.7795    -3.8853     4.2109 C.3          1    LIG   0.0000
  37 H           -1.8013    -5.6141     0.2670 H            1    LIG   0.0000
  38 H           -1.2136    -4.4864    -0.7574 H            1    LIG   0.0000
  39 H           -0.3013    -5.0092     0.4920 H            1    LIG   0.0000
  40 H           -0.1043    -2.9715    -0.7924 H            1    LIG   0.0000
  41 H            1.0961    -0.8974    -0.7952 H            1    LIG   0.0000
  42 H            0.5000     1.8660     1.0000 H            1    LIG   0.0000
  43 H            2.5567     3.0323     1.3984 H            1    LIG   0.0000
  44 H            3.3678     2.5639     0.0608 H            1    LIG   0.0000
  45 H            5.9591     2.5802     0.4502 H            1    LIG   0.0000
  46 H            8.1670     0.7487     3.9182 H            1    LIG   0.0000
  47 H           10.5593     0.8804     3.8756 H            1    LIG   0.0000
  48 H           11.6454     2.3802     2.3663 H            1    LIG   0.0000
  49 H           10.3559     3.7519     0.8964 H            1    LIG   0.0000
  50 H            7.9628     3.6278     0.9343 H            1    LIG   0.0000
  51 H            3.3705     3.4358     4.9572 H            1    LIG   0.0000
  52 H            1.5347     2.9892     6.4326 H            1    LIG   0.0000
  53 H            1.2537    -0.8614     4.9033 H            1    LIG   0.0000
  54 H            3.0909    -0.4061     3.4323 H            1    LIG   0.0000
  55 H           -0.6844     0.1591     2.8000 H            1    LIG   0.0000
  56 H           -0.1198    -3.7071     3.4809 H            1    LIG   0.0000
  57 H           -0.3438    -3.7339     5.0982 H            1    LIG   0.0000
  58 H           -1.0946    -4.8324     4.1516 H            1    LIG   0.0000
@<TRIPOS>BOND
   1        1        2 1
   2        2        3 1
   3        3        4 ar
   4        4        5 ar
   5        5        6 ar
   6        6        7 1
   7        7        8 am
   8        8        9 2
   9        8       10 1
  10       10       11 1
  11       11       12 2
  12       12       13 1
  13       13       14 1
  14       14       15 ar
  15       15       16 ar
  16       16       17 ar
  17       17       18 ar
  18       18       19 ar
  19       19       14 ar
  20       13       20 1
  21       20       21 2
  22       21       11 1
  23       21       22 1
  24       22       23 ar
  25       23       24 ar
  26       24       25 ar
  27       25       26 1
  28       25       27 ar
  29       27       28 ar
  30       28       22 ar
  31        6       29 ar
  32       29       30 ar
  33       30        3 ar
  34       30       31 1
  35       31       32 1
  36       32       33 2
  37       33       34 1
  38       34       35 2
  39       35       31 1
  40       35       36 1
  41        1       37 1
  42        1       38 1
  43        1       39 1
  44        4       40 1
  45        5       41 1
  46        7       42 1
  47       10       43 1
  48       10       44 1
  49       12       45 1
  50       15       46 1
  51       16       47 1
  52       17       48 1
  53       18       49 1
  54       19       50 1
  55       23       51 1
  56       24       52 1
  57       27       53 1
  58       28       54 1
  59       29       55 1
  60       36       56 1
  61       36       57 1
  62       36       58 1

@<TRIPOS>MOLECULE

  58   62
SMALL
USER_CHARGES
@<TRIPOS>ATOM
   1 C1          -1.5273    -4.6253    -0.0922 C.3          1    LIG   0.0000
   2 O2          -1.7685    -3.7695     1.0149 O.3          1    LIG   0.0000
   3 C3          -1.0893    -2.6037     1.0067 C.ar         1    LIG   0.0000
   4 C4          -0.2241    -2.3183    -0.0448 C.ar         1    LIG   0.0000
   5 C5           0.4721    -1.1144    -0.0446 C.ar         1    LIG   0.0000
   6 C6           0.3001    -0.2123     1.0000 C.ar         1    LIG   0.0000
   7 N7           1.0000     1.0000     1.0000 N.am         1    LIG   0.0000
   8 C8           2.3700     1.0000     1.0000 C.2          1    LIG   0.0000
   9 O9           2.9700    -0.0392     1.0000 O.2          1    LIG   0.0000
  10 C10          3.1300     2.3164     1.0000 C.3          1    LIG   0.0000
  11 C11          4.4001     2.1682     1.8221 C.2          1    LIG   0.0000
  12 C12          5.5648     1.5971     1.4132 C.2          1    LIG   0.0000
  13 N13          6.4240     1.6856     2.4686 N.pl3        1    LIG   0.0000
  14 C14          7.7435     1.2170     2.4730 C.ar         1    LIG   0.0000
  15 C15          8.7385     1.9679     3.0902 C.ar         1    LIG   0.0000
  16 C16         10.0466     1.4951     3.0892 C.ar         1    LIG   0.0000
  17 C17         10.3484     0.2831     2.4755 C.ar         1    LIG   0.0000
  18 C18          9.3469    -0.4614     1.8609 C.ar         1    LIG   0.0000
  19 C19          8.0360     0.0046     1.8569 C.ar         1    LIG   0.0000
  20 N20          5.8257     2.2770     3.4791 N.2          1    LIG   0.0000
  21 C21          4.5974     2.5928     3.1533 C.2          1    LIG   0.0000
  22 C22          3.6230     3.2538     3.9997 C.ar         1    LIG   0.0000
  23 C23          4.0280     4.2932     4.8311 C.ar         1    LIG   0.0000
  24 C24          3.1004     4.9325     5.6471 C.ar         1    LIG   0.0000
  25 C25          1.7725     4.5186     5.6185 C.ar         1    LIG   0.0000
  26 Cl26         0.5801     5.3321     6.6597 Cl           1    LIG   0.0000
  27 C27          1.3589     3.4796     4.7909 C.ar         1    LIG   0.0000
  28 C28          2.2936     2.8459     3.9786 C.ar         1    LIG   0.0000
  29 C29         -0.5643    -0.4941     2.0525 C.ar         1    LIG   0.0000
  30 C30         -1.2586    -1.6987     2.0485 C.ar         1    LIG   0.0000
  31 N31         -2.1323    -2.0017     3.1008 N.pl3        1    LIG   0.0000
  32 N32         -3.1916    -1.3234     3.4701 N.2          1    LIG   0.0000
  33 N33         -3.7559    -1.8815     4.4567 N.2          1    LIG   0.0000
  34 N34         -3.0796    -2.9618     4.7756 N.2          1    LIG   0.0000
  35 C35         -2.0643    -3.0593     3.9484 C.2          1    LIG   0.0000
  36 C36         -1.0078    -4.1546     3.9438 C.3          1    LIG   0.0000
  37 H           -2.0729    -5.4577     0.0048 H            1    LIG   0.0000
  38 H           -1.7823    -4.1563    -0.9378 H            1    LIG   0.0000
  39 H           -0.5568    -4.8646    -0.1234 H            1    LIG   0.0000
  40 H           -0.1043    -2.9715    -0.7924 H            1    LIG   0.0000
  41 H            1.0961    -0.8974    -0.7952 H            1    LIG   0.0000
  42 H            0.5000     1.8660     1.0000 H            1    LIG   0.0000
  43 H            2.5567     3.0323     1.3984 H            1    LIG   0.0000
  44 H            3.3678     2.5639     0.0608 H            1    LIG   0.0000
  45 H            5.7534     1.1933     0.5180 H            1    LIG   0.0000
  46 H            8.5159     2.8380     3.5299 H            1    LIG   0.0000
  47 H           10.7704     2.0263     3.5295 H            1    LIG   0.0000
  48 H           11.2898    -0.0543     2.4764 H            1    LIG   0.0000
  49 H            9.5693    -1.3319     1.4218 H            1    LIG   0.0000
  50 H            7.3122    -0.5260     1.4159 H            1    LIG   0.0000
  51 H            4.9858     4.5806     4.8422 H            1    LIG   0.0000
  52 H            3.3846     5.6804     6.2469 H            1    LIG   0.0000
  53 H            0.4013     3.1919     4.7800 H            1    LIG   0.0000
  54 H            2.0096     2.0972     3.3796 H            1    LIG   0.0000
  55 H           -0.6844     0.1591     2.8000 H            1    LIG   0.0000
  56 H           -0.3528    -3.9829     3.2080 H            1    LIG   0.0000
  57 H           -0.5291    -4.1597     4.8218 H            1    LIG   0.0000
  58 H           -1.4473    -5.0411     3.7987 H            1    LIG   0.0000
@<TRIPOS>BOND
   1        1        2 1
   2        2        3 1
   3        3        4 ar
   4        4        5 ar
   5        5        6 ar
   6        6        7 1
   7        7        8 am
   8        8        9 2
   9        8       10 1
  10       10       11 1
  11       11       12 2
  12       12       13 1
  13       13       14 1
  14       14       15 ar
  15       15       16 ar
  16       16       17 ar
  17       17       18 ar
  18       18       19 ar
  19       19       14 ar
  20       13       20 1
  21       20       21 2
  22       21       11 1
  23       21       22 1
  24       22       23 ar
  25       23       24 ar
  26       24       25 ar
  27       25       26 1
  28       25       27 ar
  29       27       28 ar
  30       28       22 ar
  31        6       29 ar
  32       29       30 ar
  33       30        3 ar
  34       30       31 1
  35       31       32 1
  36       32       33 2
  37       33       34 1
  38       34       35 2
  39       35       31 1
  40       35       36 1
  41        1       37 1
  42        1       38 1
  43        1       39 1
  44        4       40 1
  45        5       41 1
  46        7       42 1
  47       10       43 1
  48       10       44 1
  49       12       45 1
  50       15       46 1
  51       16       47 1
  52       17       48 1
  53       18       49 1
  54       19       50 1
  55       23       51 1
  56       24       52 1
  57       27       53 1
  58       28       54 1
  59       29       55 1
  60       36       56 1
  61       36       57 1
  62       36       58 1

