@<TRIPOS>MOLECULE
*****
 58 62 0 0 0
SMALL
USER_CHARGES

@<TRIPOS>ATOM
      1 C1         -1.2364   -4.7933    0.1870 C.3     1  LIG1        0.0000
      2 O2         -1.7722   -3.7673    1.0096 O.2     1  LIG1        0.0000
      3 C3         -1.0909   -2.6027    1.0038 C.3     1  LIG1        0.0000
      4 C4          0.0540   -2.4789    0.2231 C.3     1  LIG1        0.0000
      5 C5          0.7501   -1.2750    0.2236 C.3     1  LIG1        0.0000
      6 C6          0.3001   -0.2123    1.0000 C.3     1  LIG1        0.0000
      7 N7          1.0000    1.0000    1.0000 N.am    1  LIG1        0.0000
      8 C8          2.3700    1.0000    1.0000 C.2     1  LIG1        0.0000
      9 O9          2.9700   -0.0392    1.0000 O.2     1  LIG1        0.0000
     10 C10         3.1300    2.3164    1.0000 C.3     1  LIG1        0.0000
     11 C11         4.6246    2.0386    1.0000 C.2     1  LIG1        0.0000
     12 C12         5.5721    2.7167    1.7015 C.2     1  LIG1        0.0000
     13 N13         6.7643    2.1266    1.4010 N.pl3   1  LIG1        0.0000
     14 C14         8.0070    2.5167    1.9149 C.3     1  LIG1        0.0000
     15 C15         9.1560    1.8331    1.5310 C.3     1  LIG1        0.0000
     16 C16        10.3861    2.2270    2.0470 C.3     1  LIG1        0.0000
     17 C17        10.4583    3.2945    2.9368 C.3     1  LIG1        0.0000
     18 C18         9.3041    3.9726    3.3151 C.3     1  LIG1        0.0000
     19 C19         8.0696    3.5846    2.8041 C.3     1  LIG1        0.0000
     20 N20         6.5692    1.1374    0.5570 N.2     1  LIG1        0.0000
     21 C21         5.2953    1.0323    0.2727 C.2     1  LIG1        0.0000
     22 C22         4.6875    0.0652   -0.6207 C.3     1  LIG1        0.0000
     23 C23         5.1416   -1.2499   -0.6209 C.3     1  LIG1        0.0000
     24 C24         4.5650   -2.1842   -1.4751 C.3     1  LIG1        0.0000
     25 C25         3.5361   -1.7852   -2.3220 C.3     1  LIG1        0.0000
     26 Cl26        2.7936   -2.9752   -3.4175 Cl      1  LIG1        0.0000
     27 C27         3.0764   -0.4721   -2.3290 C.3     1  LIG1        0.0000
     28 C28         3.6592    0.4555   -1.4717 C.3     1  LIG1        0.0000
     29 C29        -0.8443   -0.3324    1.7812 C.3     1  LIG1        0.0000
     30 C30        -1.5375   -1.5377    1.7778 C.3     1  LIG1        0.0000
     31 N31        -2.6912   -1.6790    2.5596 N.pl3   1  LIG1        0.0000
     32 N32        -3.7943   -0.9754    2.4769 N.2     1  LIG1        0.0000
     33 N33        -4.6399   -1.3711    3.3323 N.2     1  LIG1        0.0000
     34 N34        -4.1169   -2.3629    4.0171 N.2     1  LIG1        0.0000
     35 C35        -2.9051   -2.5739    3.5572 C.2     1  LIG1        0.0000
     36 C36        -1.9236   -3.6259    4.0531 C.3     1  LIG1        0.0000
     37 H          -1.8078   -5.6108    0.2590 H       1  LIG1        0.0000
     38 H          -1.2171   -4.4826   -0.7633 H       1  LIG1        0.0000
     39 H          -0.3068   -5.0089    0.4862 H       1  LIG1        0.0000
     40 H           0.3729   -3.2470   -0.3322 H       1  LIG1        0.0000
     41 H           1.5740   -1.1733   -0.3340 H       1  LIG1        0.0000
     42 H           0.5000    1.8660    1.0000 H       1  LIG1        0.0000
     43 H           2.8884    2.8407    1.8165 H       1  LIG1        0.0000
     44 H           2.8884    2.8407    0.1835 H       1  LIG1        0.0000
     45 H           5.4242    3.4926    2.3148 H       1  LIG1        0.0000
     46 H           9.0982    1.0669    0.8910 H       1  LIG1        0.0000
     47 H          11.2189    1.7430    1.7784 H       1  LIG1        0.0000
     48 H          11.3441    3.5754    3.3061 H       1  LIG1        0.0000
     49 H           9.3618    4.7393    3.9545 H       1  LIG1        0.0000
     50 H           7.2366    4.0680    3.0731 H       1  LIG1        0.0000
     51 H           5.8823   -1.5234   -0.0072 H       1  LIG1        0.0000
     52 H           4.8863   -3.1312   -1.4802 H       1  LIG1        0.0000
     53 H           2.3360   -0.1984   -2.9429 H       1  LIG1        0.0000
     54 H           3.3387    1.4027   -1.4673 H       1  LIG1        0.0000
     55 H          -1.1634    0.4357    2.3364 H       1  LIG1        0.0000
     56 H          -1.0758   -3.5655    3.5262 H       1  LIG1        0.0000
     57 H          -1.7267   -3.4683    5.0207 H       1  LIG1        0.0000
     58 H          -2.3234   -4.5353    3.9381 H       1  LIG1        0.0000
@<TRIPOS>BOND
     1     1     2    1
     2     2     3    1
     3     3     4   ar
     4     4     5   ar
     5     5     6   ar
     6     6     7    1
     7     7     8   am
     8     8     9    2
     9     8    10    1
    10    10    11    1
    11    11    12    2
    12    12    13    1
    13    13    14    1
    14    14    15   ar
    15    15    16   ar
    16    16    17   ar
    17    17    18   ar
    18    18    19   ar
    19    19    14   ar
    20    13    20    1
    21    20    21    2
    22    21    11    1
    23    21    22    1
    24    22    23   ar
    25    23    24   ar
    26    24    25   ar
    27    25    26    1
    28    25    27   ar
    29    27    28   ar
    30    28    22   ar
    31     6    29   ar
    32    29    30   ar
    33    30     3   ar
    34    30    31    1
    35    31    32    1
    36    32    33    2
    37    33    34    1
    38    34    35    2
    39    35    31    1
    40    35    36    1
    41     1    37    1
    42     1    38    1
    43     1    39    1
    44     4    40    1
    45     5    41    1
    46     7    42    1
    47    10    43    1
    48    10    44    1
    49    12    45    1
    50    15    46    1
    51    16    47    1
    52    17    48    1
    53    18    49    1
    54    19    50    1
    55    23    51    1
    56    24    52    1
    57    27    53    1
    58    28    54    1
    59    29    55    1
    60    36    56    1
    61    36    57    1
    62    36    58    1
