@<TRIPOS>MOLECULE
*****
 58 62 0 0 0
SMALL
USER_CHARGES

@<TRIPOS>ATOM
      1 C1         -1.8805   -4.4209    2.2393 C.3     1  LIG1        0.0000
      2 O2         -1.7630   -3.7726    0.9814 O.2     1  LIG1        0.0000
      3 C3         -1.0845   -2.6064    0.9901 C.3     1  LIG1        0.0000
      4 C4         -0.2187   -2.3214    2.0411 C.3     1  LIG1        0.0000
      5 C5          0.4761   -1.1167    2.0419 C.3     1  LIG1        0.0000
      6 C6          0.3001   -0.2123    1.0000 C.3     1  LIG1        0.0000
      7 N7          1.0000    1.0000    1.0000 N.am    1  LIG1        0.0000
      8 C8          2.3700    1.0000    1.0000 C.2     1  LIG1        0.0000
      9 O9          2.9700   -0.0392    1.0000 O.2     1  LIG1        0.0000
     10 C10         3.1300    2.3164    1.0000 C.3     1  LIG1        0.0000
     11 C11         4.4001    2.1682    0.1779 C.2     1  LIG1        0.0000
     12 C12         5.6207    2.6887    0.4764 C.2     1  LIG1        0.0000
     13 N13         6.4557    2.3047   -0.5312 N.pl3   1  LIG1        0.0000
     14 C14         7.8157    2.6272   -0.6157 C.3     1  LIG1        0.0000
     15 C15         8.4156    2.7590   -1.8637 C.3     1  LIG1        0.0000
     16 C16         9.7672    3.0787   -1.9381 C.3     1  LIG1        0.0000
     17 C17        10.5043    3.2635   -0.7723 C.3     1  LIG1        0.0000
     18 C18         9.8960    3.1301    0.4716 C.3     1  LIG1        0.0000
     19 C19         8.5447    2.8097    0.5550 C.3     1  LIG1        0.0000
     20 N20         5.7904    1.5871   -1.4093 N.2     1  LIG1        0.0000
     21 C21         4.5398    1.4685   -1.0396 C.2     1  LIG1        0.0000
     22 C22         3.4950    0.7537   -1.7469 C.3     1  LIG1        0.0000
     23 C23         3.4094   -0.6300   -1.6304 C.3     1  LIG1        0.0000
     24 C24         2.4109   -1.3240   -2.3059 C.3     1  LIG1        0.0000
     25 C25         1.5074   -0.6178   -3.0934 C.3     1  LIG1        0.0000
     26 Cl26        0.2272   -1.4991   -3.9604 Cl      1  LIG1        0.0000
     27 C27         1.5861    0.7658   -3.2162 C.3     1  LIG1        0.0000
     28 C28         2.5881    1.4515   -2.5374 C.3     1  LIG1        0.0000
     29 C29        -0.5643   -0.4941   -0.0525 C.3     1  LIG1        0.0000
     30 C30        -1.2569   -1.6997   -0.0496 C.3     1  LIG1        0.0000
     31 N31        -2.1337   -2.0009   -1.0998 N.pl3   1  LIG1        0.0000
     32 N32        -3.0834   -1.2364   -1.5817 N.2     1  LIG1        0.0000
     33 N33        -3.6834   -1.8181   -2.5330 N.2     1  LIG1        0.0000
     34 N34        -3.1422   -3.0016   -2.7141 N.2     1  LIG1        0.0000
     35 C35        -2.1766   -3.1407   -1.8350 C.2     1  LIG1        0.0000
     36 C36        -1.2753   -4.3560   -1.6715 C.3     1  LIG1        0.0000
     37 H          -2.3961   -5.2707    2.1295 H       1  LIG1        0.0000
     38 H          -0.9688   -4.6277    2.5942 H       1  LIG1        0.0000
     39 H          -2.3594   -3.8209    2.8801 H       1  LIG1        0.0000
     40 H          -0.0973   -2.9755    2.7877 H       1  LIG1        0.0000
     41 H           1.1020   -0.9008    2.7913 H       1  LIG1        0.0000
     42 H           0.5000    1.8660    1.0000 H       1  LIG1        0.0000
     43 H           3.3678    2.5639    1.9392 H       1  LIG1        0.0000
     44 H           2.5567    3.0323    0.6016 H       1  LIG1        0.0000
     45 H           5.8583    3.2420    1.2748 H       1  LIG1        0.0000
     46 H           7.8811    2.6253   -2.6982 H       1  LIG1        0.0000
     47 H          10.2095    3.1759   -2.8297 H       1  LIG1        0.0000
     48 H          11.4758    3.4934   -0.8290 H       1  LIG1        0.0000
     49 H          10.4302    3.2644    1.3062 H       1  LIG1        0.0000
     50 H           8.1024    2.7118    1.4465 H       1  LIG1        0.0000
     51 H           4.0655   -1.1255   -1.0612 H       1  LIG1        0.0000
     52 H           2.3434   -2.3186   -2.2264 H       1  LIG1        0.0000
     53 H           0.9303    1.2614   -3.7857 H       1  LIG1        0.0000
     54 H           2.6564    2.4459   -2.6178 H       1  LIG1        0.0000
     55 H          -0.6856    0.1598   -0.7992 H       1  LIG1        0.0000
     56 H          -0.6279   -4.1930   -0.9270 H       1  LIG1        0.0000
     57 H          -1.8329   -5.1584   -1.4587 H       1  LIG1        0.0000
     58 H          -0.7728   -4.5151   -2.5213 H       1  LIG1        0.0000
@<TRIPOS>BOND
     1     1     2    1
     2     2     3    1
     3     3     4   ar
     4     4     5   ar
     5     5     6   ar
     6     6     7    1
     7     7     8   am
     8     8     9    2
     9     8    10    1
    10    10    11    1
    11    11    12    2
    12    12    13    1
    13    13    14    1
    14    14    15   ar
    15    15    16   ar
    16    16    17   ar
    17    17    18   ar
    18    18    19   ar
    19    19    14   ar
    20    13    20    1
    21    20    21    2
    22    21    11    1
    23    21    22    1
    24    22    23   ar
    25    23    24   ar
    26    24    25   ar
    27    25    26    1
    28    25    27   ar
    29    27    28   ar
    30    28    22   ar
    31     6    29   ar
    32    29    30   ar
    33    30     3   ar
    34    30    31    1
    35    31    32    1
    36    32    33    2
    37    33    34    1
    38    34    35    2
    39    35    31    1
    40    35    36    1
    41     1    37    1
    42     1    38    1
    43     1    39    1
    44     4    40    1
    45     5    41    1
    46     7    42    1
    47    10    43    1
    48    10    44    1
    49    12    45    1
    50    15    46    1
    51    16    47    1
    52    17    48    1
    53    18    49    1
    54    19    50    1
    55    23    51    1
    56    24    52    1
    57    27    53    1
    58    28    54    1
    59    29    55    1
    60    36    56    1
    61    36    57    1
    62    36    58    1
