@<TRIPOS>MOLECULE
*****
 58 62 0 0 0
SMALL
USER_CHARGES

@<TRIPOS>ATOM
      1 C1         -1.5187   -4.6303    2.0865 C.3     1  LIG1        0.0000
      2 O2         -1.7630   -3.7726    0.9814 O.2     1  LIG1        0.0000
      3 C3         -1.0845   -2.6064    0.9901 C.3     1  LIG1        0.0000
      4 C4         -0.2187   -2.3214    2.0411 C.3     1  LIG1        0.0000
      5 C5          0.4761   -1.1167    2.0419 C.3     1  LIG1        0.0000
      6 C6          0.3001   -0.2123    1.0000 C.3     1  LIG1        0.0000
      7 N7          1.0000    1.0000    1.0000 N.am    1  LIG1        0.0000
      8 C8          2.3700    1.0000    1.0000 C.2     1  LIG1        0.0000
      9 O9          2.9700   -0.0392    1.0000 O.2     1  LIG1        0.0000
     10 C10         3.1300    2.3164    1.0000 C.3     1  LIG1        0.0000
     11 C11         4.4583    2.1346    0.2834 C.2     1  LIG1        0.0000
     12 C12         4.6549    2.1224   -1.0623 C.2     1  LIG1        0.0000
     13 N13         5.9925    1.9347   -1.2505 N.pl3   1  LIG1        0.0000
     14 C14         6.6270    1.8616   -2.4967 C.3     1  LIG1        0.0000
     15 C15         7.9454    2.2864   -2.6239 C.3     1  LIG1        0.0000
     16 C16         8.5674    2.2109   -3.8656 C.3     1  LIG1        0.0000
     17 C17         7.8718    1.7143   -4.9638 C.3     1  LIG1        0.0000
     18 C18         6.5537    1.2914   -4.8274 C.3     1  LIG1        0.0000
     19 C19         5.9238    1.3642   -3.5890 C.3     1  LIG1        0.0000
     20 N20         6.5943    1.8332   -0.0859 N.2     1  LIG1        0.0000
     21 C21         5.7212    1.9440    0.8836 C.2     1  LIG1        0.0000
     22 C22         5.9983    1.8824    2.3056 C.3     1  LIG1        0.0000
     23 C23         6.5680    0.7336    2.8453 C.3     1  LIG1        0.0000
     24 C24         6.8366    0.6654    4.2085 C.3     1  LIG1        0.0000
     25 C25         6.5284    1.7553    5.0162 C.3     1  LIG1        0.0000
     26 Cl26        6.8694    1.6752    6.7612 Cl      1  LIG1        0.0000
     27 C27         5.9578    2.9077    4.4851 C.3     1  LIG1        0.0000
     28 C28         5.6924    2.9668    3.1209 C.3     1  LIG1        0.0000
     29 C29        -0.5643   -0.4941   -0.0525 C.3     1  LIG1        0.0000
     30 C30        -1.2569   -1.6997   -0.0496 C.3     1  LIG1        0.0000
     31 N31        -2.1337   -2.0009   -1.0998 N.pl3   1  LIG1        0.0000
     32 N32        -2.5738   -3.1856   -1.4482 N.2     1  LIG1        0.0000
     33 N33        -3.3561   -3.0959   -2.4398 N.2     1  LIG1        0.0000
     34 N34        -3.4607   -1.8322   -2.7836 N.2     1  LIG1        0.0000
     35 C35        -2.7096   -1.1300   -1.9667 C.2     1  LIG1        0.0000
     36 C36        -2.5202    0.3798   -1.9903 C.3     1  LIG1        0.0000
     37 H          -2.0639   -5.4629    1.9892 H       1  LIG1        0.0000
     38 H          -0.5480   -4.8689    2.1150 H       1  LIG1        0.0000
     39 H          -1.7720   -4.1630    2.9335 H       1  LIG1        0.0000
     40 H          -0.0973   -2.9755    2.7877 H       1  LIG1        0.0000
     41 H           1.1020   -0.9008    2.7913 H       1  LIG1        0.0000
     42 H           0.5000    1.8660    1.0000 H       1  LIG1        0.0000
     43 H           3.2967    2.6050    1.9428 H       1  LIG1        0.0000
     44 H           2.5896    3.0133    0.5286 H       1  LIG1        0.0000
     45 H           3.9583    2.2297   -1.7717 H       1  LIG1        0.0000
     46 H           8.4405    2.6422   -1.8312 H       1  LIG1        0.0000
     47 H           9.5149    2.5136   -3.9693 H       1  LIG1        0.0000
     48 H           8.3217    1.6612   -5.8553 H       1  LIG1        0.0000
     49 H           6.0586    0.9350   -5.6198 H       1  LIG1        0.0000
     50 H           4.9761    1.0623   -3.4853 H       1  LIG1        0.0000
     51 H           6.7843   -0.0429    2.2535 H       1  LIG1        0.0000
     52 H           7.2462   -0.1571    4.6030 H       1  LIG1        0.0000
     53 H           5.7411    3.6841    5.0769 H       1  LIG1        0.0000
     54 H           5.2817    3.7889    2.7265 H       1  LIG1        0.0000
     55 H          -0.6856    0.1598   -0.7992 H       1  LIG1        0.0000
     56 H          -1.8958    0.6490   -1.2570 H       1  LIG1        0.0000
     57 H          -2.1365    0.6539   -2.8722 H       1  LIG1        0.0000
     58 H          -3.4038    0.8288   -1.8573 H       1  LIG1        0.0000
@<TRIPOS>BOND
     1     1     2    1
     2     2     3    1
     3     3     4   ar
     4     4     5   ar
     5     5     6   ar
     6     6     7    1
     7     7     8   am
     8     8     9    2
     9     8    10    1
    10    10    11    1
    11    11    12    2
    12    12    13    1
    13    13    14    1
    14    14    15   ar
    15    15    16   ar
    16    16    17   ar
    17    17    18   ar
    18    18    19   ar
    19    19    14   ar
    20    13    20    1
    21    20    21    2
    22    21    11    1
    23    21    22    1
    24    22    23   ar
    25    23    24   ar
    26    24    25   ar
    27    25    26    1
    28    25    27   ar
    29    27    28   ar
    30    28    22   ar
    31     6    29   ar
    32    29    30   ar
    33    30     3   ar
    34    30    31    1
    35    31    32    1
    36    32    33    2
    37    33    34    1
    38    34    35    2
    39    35    31    1
    40    35    36    1
    41     1    37    1
    42     1    38    1
    43     1    39    1
    44     4    40    1
    45     5    41    1
    46     7    42    1
    47    10    43    1
    48    10    44    1
    49    12    45    1
    50    15    46    1
    51    16    47    1
    52    17    48    1
    53    18    49    1
    54    19    50    1
    55    23    51    1
    56    24    52    1
    57    27    53    1
    58    28    54    1
    59    29    55    1
    60    36    56    1
    61    36    57    1
    62    36    58    1
