@<TRIPOS>MOLECULE
*****
 58 62 0 0 0
SMALL
USER_CHARGES

@<TRIPOS>ATOM
      1 C1         -1.2300   -4.7970    1.8041 C.3     1  LIG1        0.0000
      2 O2         -1.7681   -3.7697    0.9848 O.2     1  LIG1        0.0000
      3 C3         -1.0874   -2.6048    0.9914 C.3     1  LIG1        0.0000
      4 C4          0.0581   -2.4812    1.7713 C.3     1  LIG1        0.0000
      5 C5          0.7531   -1.2767    1.7723 C.3     1  LIG1        0.0000
      6 C6          0.3001   -0.2123    1.0000 C.3     1  LIG1        0.0000
      7 N7          1.0000    1.0000    1.0000 N.am    1  LIG1        0.0000
      8 C8          2.3700    1.0000    1.0000 C.2     1  LIG1        0.0000
      9 O9          2.9700   -0.0392    1.0000 O.2     1  LIG1        0.0000
     10 C10         3.1300    2.3164    1.0000 C.3     1  LIG1        0.0000
     11 C11         4.6246    2.0386    1.0000 C.2     1  LIG1        0.0000
     12 C12         5.4529    2.0755   -0.0781 C.2     1  LIG1        0.0000
     13 N13         6.6969    1.7638    0.3860 N.pl3   1  LIG1        0.0000
     14 C14         7.8535    1.6910   -0.3998 C.3     1  LIG1        0.0000
     15 C15         9.0684    1.3620    0.1924 C.3     1  LIG1        0.0000
     16 C16        10.2124    1.2926   -0.5957 C.3     1  LIG1        0.0000
     17 C17        10.1342    1.5506   -1.9609 C.3     1  LIG1        0.0000
     18 C18         8.9149    1.8786   -2.5448 C.3     1  LIG1        0.0000
     19 C19         7.7660    1.9507   -1.7636 C.3     1  LIG1        0.0000
     20 N20         6.6446    1.5428    1.6811 N.2     1  LIG1        0.0000
     21 C21         5.4178    1.6913    2.1143 C.2     1  LIG1        0.0000
     22 C22         4.9597    1.5296    3.4806 C.3     1  LIG1        0.0000
     23 C23         5.4672    0.4927    4.2571 C.3     1  LIG1        0.0000
     24 C24         5.0329    0.3295    5.5684 C.3     1  LIG1        0.0000
     25 C25         4.0906    1.2123    6.0861 C.3     1  LIG1        0.0000
     26 Cl26        3.5304    1.0096    7.7632 Cl      1  LIG1        0.0000
     27 C27         3.5771    2.2514    5.3164 C.3     1  LIG1        0.0000
     28 C28         4.0169    2.4067    4.0060 C.3     1  LIG1        0.0000
     29 C29        -0.8443   -0.3324    0.2188 C.3     1  LIG1        0.0000
     30 C30        -1.5362   -1.5384    0.2205 C.3     1  LIG1        0.0000
     31 N31        -2.6923   -1.6784   -0.5582 N.pl3   1  LIG1        0.0000
     32 N32        -2.7894   -1.5556   -1.8598 N.2     1  LIG1        0.0000
     33 N33        -3.9820   -1.7509   -2.2375 N.2     1  LIG1        0.0000
     34 N34        -4.7221   -2.0135   -1.1842 N.2     1  LIG1        0.0000
     35 C35        -3.9446   -1.9737   -0.1267 C.2     1  LIG1        0.0000
     36 C36        -4.3708   -2.2130    1.3146 C.3     1  LIG1        0.0000
     37 H          -1.8011   -5.6146    1.7318 H       1  LIG1        0.0000
     38 H          -0.3010   -5.0116    1.5026 H       1  LIG1        0.0000
     39 H          -1.2088   -4.4882    2.7550 H       1  LIG1        0.0000
     40 H           0.3781   -3.2500    2.3250 H       1  LIG1        0.0000
     41 H           1.5783   -1.1758    2.3280 H       1  LIG1        0.0000
     42 H           0.5000    1.8660    1.0000 H       1  LIG1        0.0000
     43 H           2.8884    2.8407    1.8165 H       1  LIG1        0.0000
     44 H           2.8884    2.8407    0.1835 H       1  LIG1        0.0000
     45 H           5.2004    2.2884   -1.0220 H       1  LIG1        0.0000
     46 H           9.1188    1.1774    1.1739 H       1  LIG1        0.0000
     47 H          11.0915    1.0574   -0.1811 H       1  LIG1        0.0000
     48 H          10.9584    1.4999   -2.5249 H       1  LIG1        0.0000
     49 H           8.8643    2.0625   -3.5264 H       1  LIG1        0.0000
     50 H           6.8869    2.1868   -2.1779 H       1  LIG1        0.0000
     51 H           6.1440   -0.1351    3.8725 H       1  LIG1        0.0000
     52 H           5.3937   -0.4134    6.1322 H       1  LIG1        0.0000
     53 H           2.9001    2.8790    5.7007 H       1  LIG1        0.0000
     54 H           3.6553    3.1489    3.4417 H       1  LIG1        0.0000
     55 H          -1.1643    0.4362   -0.3351 H       1  LIG1        0.0000
     56 H          -3.5774   -2.1211    1.9164 H       1  LIG1        0.0000
     57 H          -5.0648   -1.5410    1.5729 H       1  LIG1        0.0000
     58 H          -4.7501   -3.1342    1.4014 H       1  LIG1        0.0000
@<TRIPOS>BOND
     1     1     2    1
     2     2     3    1
     3     3     4   ar
     4     4     5   ar
     5     5     6   ar
     6     6     7    1
     7     7     8   am
     8     8     9    2
     9     8    10    1
    10    10    11    1
    11    11    12    2
    12    12    13    1
    13    13    14    1
    14    14    15   ar
    15    15    16   ar
    16    16    17   ar
    17    17    18   ar
    18    18    19   ar
    19    19    14   ar
    20    13    20    1
    21    20    21    2
    22    21    11    1
    23    21    22    1
    24    22    23   ar
    25    23    24   ar
    26    24    25   ar
    27    25    26    1
    28    25    27   ar
    29    27    28   ar
    30    28    22   ar
    31     6    29   ar
    32    29    30   ar
    33    30     3   ar
    34    30    31    1
    35    31    32    1
    36    32    33    2
    37    33    34    1
    38    34    35    2
    39    35    31    1
    40    35    36    1
    41     1    37    1
    42     1    38    1
    43     1    39    1
    44     4    40    1
    45     5    41    1
    46     7    42    1
    47    10    43    1
    48    10    44    1
    49    12    45    1
    50    15    46    1
    51    16    47    1
    52    17    48    1
    53    18    49    1
    54    19    50    1
    55    23    51    1
    56    24    52    1
    57    27    53    1
    58    28    54    1
    59    29    55    1
    60    36    56    1
    61    36    57    1
    62    36    58    1
