@<TRIPOS>MOLECULE
*****
 58 62 0 0 0
SMALL
USER_CHARGES

@<TRIPOS>ATOM
      1 C1         -1.2300   -4.7970    1.8041 C.3     1  LIG1        0.0000
      2 O2         -1.7681   -3.7697    0.9848 O.2     1  LIG1        0.0000
      3 C3         -1.0874   -2.6048    0.9914 C.3     1  LIG1        0.0000
      4 C4          0.0581   -2.4812    1.7713 C.3     1  LIG1        0.0000
      5 C5          0.7531   -1.2767    1.7723 C.3     1  LIG1        0.0000
      6 C6          0.3001   -0.2123    1.0000 C.3     1  LIG1        0.0000
      7 N7          1.0000    1.0000    1.0000 N.am    1  LIG1        0.0000
      8 C8          2.3700    1.0000    1.0000 C.2     1  LIG1        0.0000
      9 O9          2.9700   -0.0392    1.0000 O.2     1  LIG1        0.0000
     10 C10         3.1300    2.3164    1.0000 C.3     1  LIG1        0.0000
     11 C11         4.4001    2.1682    1.8221 C.2     1  LIG1        0.0000
     12 C12         5.6545    1.9591    1.3398 C.2     1  LIG1        0.0000
     13 N13         6.4748    1.8920    2.4273 N.pl3   1  LIG1        0.0000
     14 C14         7.8592    1.6877    2.3790 C.3     1  LIG1        0.0000
     15 C15         8.4956    1.0343    3.4293 C.3     1  LIG1        0.0000
     16 C16         9.8712    0.8363    3.3733 C.3     1  LIG1        0.0000
     17 C17        10.5958    1.2895    2.2751 C.3     1  LIG1        0.0000
     18 C18         9.9511    1.9417    1.2291 C.3     1  LIG1        0.0000
     19 C19         8.5755    2.1444    1.2775 C.3     1  LIG1        0.0000
     20 N20         5.7690    2.0483    3.5255 N.2     1  LIG1        0.0000
     21 C21         4.5051    2.2183    3.2284 C.2     1  LIG1        0.0000
     22 C22         3.4177    2.4199    4.1665 C.3     1  LIG1        0.0000
     23 C23         3.2096    3.6808    4.7162 C.3     1  LIG1        0.0000
     24 C24         2.1695    3.8832    5.6174 C.3     1  LIG1        0.0000
     25 C25         1.3484    2.8130    5.9575 C.3     1  LIG1        0.0000
     26 Cl26        0.0156    3.0646    7.1099 Cl      1  LIG1        0.0000
     27 C27         1.5499    1.5485    5.4134 C.3     1  LIG1        0.0000
     28 C28         2.5926    1.3554    4.5132 C.3     1  LIG1        0.0000
     29 C29        -0.8443   -0.3324    0.2188 C.3     1  LIG1        0.0000
     30 C30        -1.5362   -1.5384    0.2205 C.3     1  LIG1        0.0000
     31 N31        -2.6923   -1.6784   -0.5582 N.pl3   1  LIG1        0.0000
     32 N32        -3.9273   -1.7791   -0.1301 N.2     1  LIG1        0.0000
     33 N33        -4.7285   -1.8884   -1.1045 N.2     1  LIG1        0.0000
     34 N34        -4.0404   -1.8624   -2.2234 N.2     1  LIG1        0.0000
     35 C35        -2.7713   -1.7334   -1.9118 C.2     1  LIG1        0.0000
     36 C36        -1.6066   -1.6611   -2.8886 C.3     1  LIG1        0.0000
     37 H          -1.8011   -5.6146    1.7318 H       1  LIG1        0.0000
     38 H          -0.3010   -5.0116    1.5026 H       1  LIG1        0.0000
     39 H          -1.2088   -4.4882    2.7550 H       1  LIG1        0.0000
     40 H           0.3781   -3.2500    2.3250 H       1  LIG1        0.0000
     41 H           1.5783   -1.1758    2.3280 H       1  LIG1        0.0000
     42 H           0.5000    1.8660    1.0000 H       1  LIG1        0.0000
     43 H           2.5567    3.0323    1.3984 H       1  LIG1        0.0000
     44 H           3.3678    2.5639    0.0608 H       1  LIG1        0.0000
     45 H           5.9218    1.8719    0.3802 H       1  LIG1        0.0000
     46 H           7.9699    0.7106    4.2159 H       1  LIG1        0.0000
     47 H          10.3397    0.3681    4.1225 H       1  LIG1        0.0000
     48 H          11.5847    1.1457    2.2377 H       1  LIG1        0.0000
     49 H          10.4765    2.2649    0.4421 H       1  LIG1        0.0000
     50 H           8.1069    2.6133    0.5287 H       1  LIG1        0.0000
     51 H           3.8075    4.4415    4.4634 H       1  LIG1        0.0000
     52 H           2.0140    4.7870    6.0161 H       1  LIG1        0.0000
     53 H           0.9523    0.7877    5.6663 H       1  LIG1        0.0000
     54 H           2.7488    0.4513    4.1154 H       1  LIG1        0.0000
     55 H          -1.1643    0.4362   -0.3351 H       1  LIG1        0.0000
     56 H          -0.7509   -1.5633   -2.3804 H       1  LIG1        0.0000
     57 H          -1.5764   -2.4987   -3.4341 H       1  LIG1        0.0000
     58 H          -1.7270   -0.8737   -3.4933 H       1  LIG1        0.0000
@<TRIPOS>BOND
     1     1     2    1
     2     2     3    1
     3     3     4   ar
     4     4     5   ar
     5     5     6   ar
     6     6     7    1
     7     7     8   am
     8     8     9    2
     9     8    10    1
    10    10    11    1
    11    11    12    2
    12    12    13    1
    13    13    14    1
    14    14    15   ar
    15    15    16   ar
    16    16    17   ar
    17    17    18   ar
    18    18    19   ar
    19    19    14   ar
    20    13    20    1
    21    20    21    2
    22    21    11    1
    23    21    22    1
    24    22    23   ar
    25    23    24   ar
    26    24    25   ar
    27    25    26    1
    28    25    27   ar
    29    27    28   ar
    30    28    22   ar
    31     6    29   ar
    32    29    30   ar
    33    30     3   ar
    34    30    31    1
    35    31    32    1
    36    32    33    2
    37    33    34    1
    38    34    35    2
    39    35    31    1
    40    35    36    1
    41     1    37    1
    42     1    38    1
    43     1    39    1
    44     4    40    1
    45     5    41    1
    46     7    42    1
    47    10    43    1
    48    10    44    1
    49    12    45    1
    50    15    46    1
    51    16    47    1
    52    17    48    1
    53    18    49    1
    54    19    50    1
    55    23    51    1
    56    24    52    1
    57    27    53    1
    58    28    54    1
    59    29    55    1
    60    36    56    1
    61    36    57    1
    62    36    58    1
