@<TRIPOS>MOLECULE
*****
 58 62 0 0 0
SMALL
USER_CHARGES

@<TRIPOS>ATOM
      1 C1         -1.2364   -4.7933    0.1870 C.3     1  LIG1        0.0000
      2 O2         -1.7722   -3.7673    1.0096 O.2     1  LIG1        0.0000
      3 C3         -1.0909   -2.6027    1.0038 C.3     1  LIG1        0.0000
      4 C4          0.0540   -2.4789    0.2231 C.3     1  LIG1        0.0000
      5 C5          0.7501   -1.2750    0.2236 C.3     1  LIG1        0.0000
      6 C6          0.3001   -0.2123    1.0000 C.3     1  LIG1        0.0000
      7 N7          1.0000    1.0000    1.0000 N.am    1  LIG1        0.0000
      8 C8          2.3700    1.0000    1.0000 C.2     1  LIG1        0.0000
      9 O9          2.9700   -0.0392    1.0000 O.2     1  LIG1        0.0000
     10 C10         3.1300    2.3164    1.0000 C.3     1  LIG1        0.0000
     11 C11         4.4583    2.1346    0.2834 C.2     1  LIG1        0.0000
     12 C12         4.6326    1.7469   -1.0086 C.2     1  LIG1        0.0000
     13 N13         5.9795    1.7207   -1.2204 N.pl3   1  LIG1        0.0000
     14 C14         6.5971    1.3736   -2.4282 C.3     1  LIG1        0.0000
     15 C15         7.9851    1.3849   -2.5198 C.3     1  LIG1        0.0000
     16 C16         8.5900    1.0394   -3.7236 C.3     1  LIG1        0.0000
     17 C17         7.8085    0.6871   -4.8198 C.3     1  LIG1        0.0000
     18 C18         6.4211    0.6782   -4.7191 C.3     1  LIG1        0.0000
     19 C19         5.8079    1.0231   -3.5188 C.3     1  LIG1        0.0000
     20 N20         6.6084    2.0704   -0.1200 N.2     1  LIG1        0.0000
     21 C21         5.7447    2.3323    0.8287 C.2     1  LIG1        0.0000
     22 C22         6.0511    2.7472    2.1841 C.3     1  LIG1        0.0000
     23 C23         7.1214    2.1648    2.8554 C.3     1  LIG1        0.0000
     24 C24         7.4221    2.5560    4.1559 C.3     1  LIG1        0.0000
     25 C25         6.6413    3.5305    4.7691 C.3     1  LIG1        0.0000
     26 Cl26        7.0203    4.0361    6.4329 Cl      1  LIG1        0.0000
     27 C27         5.5686    4.1176    4.1055 C.3     1  LIG1        0.0000
     28 C28         5.2751    3.7199    2.8053 C.3     1  LIG1        0.0000
     29 C29        -0.8443   -0.3324    1.7812 C.3     1  LIG1        0.0000
     30 C30        -1.5375   -1.5377    1.7778 C.3     1  LIG1        0.0000
     31 N31        -2.6912   -1.6790    2.5596 N.pl3   1  LIG1        0.0000
     32 N32        -2.7845   -1.5583    3.8617 N.2     1  LIG1        0.0000
     33 N33        -3.9777   -1.7455    4.2417 N.2     1  LIG1        0.0000
     34 N34        -4.7224   -1.9986    3.1893 N.2     1  LIG1        0.0000
     35 C35        -3.9466   -1.9642    2.1303 C.2     1  LIG1        0.0000
     36 C36        -4.3769   -2.2019    0.6901 C.3     1  LIG1        0.0000
     37 H          -1.8078   -5.6108    0.2590 H       1  LIG1        0.0000
     38 H          -1.2171   -4.4826   -0.7633 H       1  LIG1        0.0000
     39 H          -0.3068   -5.0089    0.4862 H       1  LIG1        0.0000
     40 H           0.3729   -3.2470   -0.3322 H       1  LIG1        0.0000
     41 H           1.5740   -1.1733   -0.3340 H       1  LIG1        0.0000
     42 H           0.5000    1.8660    1.0000 H       1  LIG1        0.0000
     43 H           3.2967    2.6050    1.9428 H       1  LIG1        0.0000
     44 H           2.5896    3.0133    0.5286 H       1  LIG1        0.0000
     45 H           3.9165    1.5254   -1.6705 H       1  LIG1        0.0000
     46 H           8.5418    1.6387   -1.7288 H       1  LIG1        0.0000
     47 H           9.5870    1.0442   -3.8015 H       1  LIG1        0.0000
     48 H           8.2463    0.4392   -5.6840 H       1  LIG1        0.0000
     49 H           5.8642    0.4238   -5.5098 H       1  LIG1        0.0000
     50 H           4.8110    1.0191   -3.4409 H       1  LIG1        0.0000
     51 H           7.6744    1.4651    2.4030 H       1  LIG1        0.0000
     52 H           8.1902    2.1417    4.6442 H       1  LIG1        0.0000
     53 H           5.0153    4.8170    4.5579 H       1  LIG1        0.0000
     54 H           4.5064    4.1334    2.3174 H       1  LIG1        0.0000
     55 H          -1.1634    0.4357    2.3364 H       1  LIG1        0.0000
     56 H          -3.5842   -2.1151    0.0867 H       1  LIG1        0.0000
     57 H          -4.7619   -3.1209    0.6045 H       1  LIG1        0.0000
     58 H          -5.0674   -1.5260    0.4326 H       1  LIG1        0.0000
@<TRIPOS>BOND
     1     1     2    1
     2     2     3    1
     3     3     4   ar
     4     4     5   ar
     5     5     6   ar
     6     6     7    1
     7     7     8   am
     8     8     9    2
     9     8    10    1
    10    10    11    1
    11    11    12    2
    12    12    13    1
    13    13    14    1
    14    14    15   ar
    15    15    16   ar
    16    16    17   ar
    17    17    18   ar
    18    18    19   ar
    19    19    14   ar
    20    13    20    1
    21    20    21    2
    22    21    11    1
    23    21    22    1
    24    22    23   ar
    25    23    24   ar
    26    24    25   ar
    27    25    26    1
    28    25    27   ar
    29    27    28   ar
    30    28    22   ar
    31     6    29   ar
    32    29    30   ar
    33    30     3   ar
    34    30    31    1
    35    31    32    1
    36    32    33    2
    37    33    34    1
    38    34    35    2
    39    35    31    1
    40    35    36    1
    41     1    37    1
    42     1    38    1
    43     1    39    1
    44     4    40    1
    45     5    41    1
    46     7    42    1
    47    10    43    1
    48    10    44    1
    49    12    45    1
    50    15    46    1
    51    16    47    1
    52    17    48    1
    53    18    49    1
    54    19    50    1
    55    23    51    1
    56    24    52    1
    57    27    53    1
    58    28    54    1
    59    29    55    1
    60    36    56    1
    61    36    57    1
    62    36    58    1
