@<TRIPOS>MOLECULE
*****
 58 62 0 0 0
SMALL
USER_CHARGES

@<TRIPOS>ATOM
      1 C1         -1.8893   -4.4154   -0.2439 C.3     1  LIG1        0.0000
      2 O2         -1.7685   -3.7695    1.0149 O.2     1  LIG1        0.0000
      3 C3         -1.0893   -2.6037    1.0067 C.3     1  LIG1        0.0000
      4 C4         -0.2241   -2.3183   -0.0448 C.3     1  LIG1        0.0000
      5 C5          0.4721   -1.1144   -0.0446 C.3     1  LIG1        0.0000
      6 C6          0.3001   -0.2123    1.0000 C.3     1  LIG1        0.0000
      7 N7          1.0000    1.0000    1.0000 N.am    1  LIG1        0.0000
      8 C8          2.3700    1.0000    1.0000 C.2     1  LIG1        0.0000
      9 O9          2.9700   -0.0392    1.0000 O.2     1  LIG1        0.0000
     10 C10         3.1300    2.3164    1.0000 C.3     1  LIG1        0.0000
     11 C11         4.4001    2.1682    1.8221 C.2     1  LIG1        0.0000
     12 C12         5.6545    1.9591    1.3398 C.2     1  LIG1        0.0000
     13 N13         6.4748    1.8920    2.4273 N.pl3   1  LIG1        0.0000
     14 C14         7.8592    1.6877    2.3790 C.3     1  LIG1        0.0000
     15 C15         8.5894    1.6386    3.5620 C.3     1  LIG1        0.0000
     16 C16         9.9643    1.4359    3.5046 C.3     1  LIG1        0.0000
     17 C17        10.5950    1.2845    2.2734 C.3     1  LIG1        0.0000
     18 C18         9.8568    1.3348    1.0954 C.3     1  LIG1        0.0000
     19 C19         8.4813    1.5377    1.1439 C.3     1  LIG1        0.0000
     20 N20         5.7690    2.0483    3.5255 N.2     1  LIG1        0.0000
     21 C21         4.5051    2.2183    3.2284 C.2     1  LIG1        0.0000
     22 C22         3.4177    2.4199    4.1665 C.3     1  LIG1        0.0000
     23 C23         3.3895    1.6923    5.3520 C.3     1  LIG1        0.0000
     24 C24         2.3499    1.8785    6.2573 C.3     1  LIG1        0.0000
     25 C25         1.3474    2.7961    5.9600 C.3     1  LIG1        0.0000
     26 Cl26        0.0143    3.0397    7.1137 Cl      1  LIG1        0.0000
     27 C27         1.3673    3.5272    4.7766 C.3     1  LIG1        0.0000
     28 C28         2.4106    3.3342    3.8770 C.3     1  LIG1        0.0000
     29 C29        -0.5643   -0.4941    2.0525 C.3     1  LIG1        0.0000
     30 C30        -1.2586   -1.6987    2.0485 C.3     1  LIG1        0.0000
     31 N31        -2.1323   -2.0017    3.1008 N.pl3   1  LIG1        0.0000
     32 N32        -1.9663   -2.9113    4.0302 N.2     1  LIG1        0.0000
     33 N33        -2.9488   -2.9159    4.8289 N.2     1  LIG1        0.0000
     34 N34        -3.8075   -1.9969    4.4491 N.2     1  LIG1        0.0000
     35 C35        -3.3242   -1.4142    3.3761 C.2     1  LIG1        0.0000
     36 C36        -3.9810   -0.2901    2.5880 C.3     1  LIG1        0.0000
     37 H          -2.4053   -5.2650   -0.1344 H       1  LIG1        0.0000
     38 H          -2.3693   -3.8139   -0.8825 H       1  LIG1        0.0000
     39 H          -0.9786   -4.6222   -0.6012 H       1  LIG1        0.0000
     40 H          -0.1043   -2.9715   -0.7924 H       1  LIG1        0.0000
     41 H           1.0961   -0.8974   -0.7952 H       1  LIG1        0.0000
     42 H           0.5000    1.8660    1.0000 H       1  LIG1        0.0000
     43 H           2.5567    3.0323    1.3984 H       1  LIG1        0.0000
     44 H           3.3678    2.5639    0.0608 H       1  LIG1        0.0000
     45 H           5.9218    1.8719    0.3802 H       1  LIG1        0.0000
     46 H           8.1309    1.7478    4.4439 H       1  LIG1        0.0000
     47 H          10.4997    1.3990    4.3483 H       1  LIG1        0.0000
     48 H          11.5836    1.1389    2.2353 H       1  LIG1        0.0000
     49 H          10.3151    1.2249    0.2134 H       1  LIG1        0.0000
     50 H           7.9458    1.5754    0.3002 H       1  LIG1        0.0000
     51 H           4.1163    1.0356    5.5532 H       1  LIG1        0.0000
     52 H           2.3236    1.3591    7.1114 H       1  LIG1        0.0000
     53 H           0.6403    4.1837    4.5750 H       1  LIG1        0.0000
     54 H           2.4364    3.8527    3.0223 H       1  LIG1        0.0000
     55 H          -0.6844    0.1591    2.8000 H       1  LIG1        0.0000
     56 H          -3.3954   -0.0364    1.8181 H       1  LIG1        0.0000
     57 H          -4.8683   -0.5981    2.2446 H       1  LIG1        0.0000
     58 H          -4.1110    0.5027    3.1834 H       1  LIG1        0.0000
@<TRIPOS>BOND
     1     1     2    1
     2     2     3    1
     3     3     4   ar
     4     4     5   ar
     5     5     6   ar
     6     6     7    1
     7     7     8   am
     8     8     9    2
     9     8    10    1
    10    10    11    1
    11    11    12    2
    12    12    13    1
    13    13    14    1
    14    14    15   ar
    15    15    16   ar
    16    16    17   ar
    17    17    18   ar
    18    18    19   ar
    19    19    14   ar
    20    13    20    1
    21    20    21    2
    22    21    11    1
    23    21    22    1
    24    22    23   ar
    25    23    24   ar
    26    24    25   ar
    27    25    26    1
    28    25    27   ar
    29    27    28   ar
    30    28    22   ar
    31     6    29   ar
    32    29    30   ar
    33    30     3   ar
    34    30    31    1
    35    31    32    1
    36    32    33    2
    37    33    34    1
    38    34    35    2
    39    35    31    1
    40    35    36    1
    41     1    37    1
    42     1    38    1
    43     1    39    1
    44     4    40    1
    45     5    41    1
    46     7    42    1
    47    10    43    1
    48    10    44    1
    49    12    45    1
    50    15    46    1
    51    16    47    1
    52    17    48    1
    53    18    49    1
    54    19    50    1
    55    23    51    1
    56    24    52    1
    57    27    53    1
    58    28    54    1
    59    29    55    1
    60    36    56    1
    61    36    57    1
    62    36    58    1
