@<TRIPOS>MOLECULE
*****
 58 62 0 0 0
SMALL
USER_CHARGES

@<TRIPOS>ATOM
      1 C1         -1.2300   -4.7970    1.8041 C.3     1  LIG1        0.0000
      2 O2         -1.7681   -3.7697    0.9848 O.2     1  LIG1        0.0000
      3 C3         -1.0874   -2.6048    0.9914 C.3     1  LIG1        0.0000
      4 C4          0.0581   -2.4812    1.7713 C.3     1  LIG1        0.0000
      5 C5          0.7531   -1.2767    1.7723 C.3     1  LIG1        0.0000
      6 C6          0.3001   -0.2123    1.0000 C.3     1  LIG1        0.0000
      7 N7          1.0000    1.0000    1.0000 N.am    1  LIG1        0.0000
      8 C8          2.3700    1.0000    1.0000 C.2     1  LIG1        0.0000
      9 O9          2.9700   -0.0392    1.0000 O.2     1  LIG1        0.0000
     10 C10         3.1300    2.3164    1.0000 C.3     1  LIG1        0.0000
     11 C11         4.4001    2.1682    0.1779 C.2     1  LIG1        0.0000
     12 C12         5.6207    2.6887    0.4764 C.2     1  LIG1        0.0000
     13 N13         6.4557    2.3047   -0.5312 N.pl3   1  LIG1        0.0000
     14 C14         7.8157    2.6272   -0.6157 C.3     1  LIG1        0.0000
     15 C15         8.5645    2.1745   -1.6970 C.3     1  LIG1        0.0000
     16 C16         9.9150    2.4990   -1.7723 C.3     1  LIG1        0.0000
     17 C17        10.5030    3.2687   -0.7731 C.3     1  LIG1        0.0000
     18 C18         9.7464    3.7173    0.3045 C.3     1  LIG1        0.0000
     19 C19         8.3951    3.3967    0.3879 C.3     1  LIG1        0.0000
     20 N20         5.7904    1.5871   -1.4093 N.2     1  LIG1        0.0000
     21 C21         4.5398    1.4685   -1.0396 C.2     1  LIG1        0.0000
     22 C22         3.4950    0.7537   -1.7469 C.3     1  LIG1        0.0000
     23 C23         2.8658    1.3542   -2.8327 C.3     1  LIG1        0.0000
     24 C24         1.8620    0.6763   -3.5166 C.3     1  LIG1        0.0000
     25 C25         1.5004   -0.6008   -3.1001 C.3     1  LIG1        0.0000
     26 Cl26        0.2169   -1.4742   -3.9703 Cl      1  LIG1        0.0000
     27 C27         2.1236   -1.2085   -2.0147 C.3     1  LIG1        0.0000
     28 C28         3.1261   -0.5230   -1.3367 C.3     1  LIG1        0.0000
     29 C29        -0.8443   -0.3324    0.2188 C.3     1  LIG1        0.0000
     30 C30        -1.5362   -1.5384    0.2205 C.3     1  LIG1        0.0000
     31 N31        -2.6923   -1.6784   -0.5582 N.pl3   1  LIG1        0.0000
     32 N32        -3.3492   -2.7851   -0.8077 N.2     1  LIG1        0.0000
     33 N33        -4.3521   -2.5510   -1.5443 N.2     1  LIG1        0.0000
     34 N34        -4.3920   -1.2647   -1.8089 N.2     1  LIG1        0.0000
     35 C35        -3.3704   -0.6990   -1.2083 C.2     1  LIG1        0.0000
     36 C36        -3.0137    0.7802   -1.2383 C.3     1  LIG1        0.0000
     37 H          -1.8011   -5.6146    1.7318 H       1  LIG1        0.0000
     38 H          -0.3010   -5.0116    1.5026 H       1  LIG1        0.0000
     39 H          -1.2088   -4.4882    2.7550 H       1  LIG1        0.0000
     40 H           0.3781   -3.2500    2.3250 H       1  LIG1        0.0000
     41 H           1.5783   -1.1758    2.3280 H       1  LIG1        0.0000
     42 H           0.5000    1.8660    1.0000 H       1  LIG1        0.0000
     43 H           3.3678    2.5639    1.9392 H       1  LIG1        0.0000
     44 H           2.5567    3.0323    0.6016 H       1  LIG1        0.0000
     45 H           5.8583    3.2420    1.2748 H       1  LIG1        0.0000
     46 H           8.1367    1.6220   -2.4122 H       1  LIG1        0.0000
     47 H          10.4635    2.1791   -2.5448 H       1  LIG1        0.0000
     48 H          11.4741    3.5003   -0.8301 H       1  LIG1        0.0000
     49 H          10.1739    4.2704    1.0195 H       1  LIG1        0.0000
     50 H           7.8465    3.7159    1.1607 H       1  LIG1        0.0000
     51 H           3.1352    2.2729   -3.1215 H       1  LIG1        0.0000
     52 H           1.4057    1.1018   -4.2981 H       1  LIG1        0.0000
     53 H           1.8540   -2.1271   -1.7256 H       1  LIG1        0.0000
     54 H           3.5816   -0.9480   -0.5544 H       1  LIG1        0.0000
     55 H          -1.1643    0.4362   -0.3351 H       1  LIG1        0.0000
     56 H          -2.1878    0.9349   -0.6961 H       1  LIG1        0.0000
     57 H          -2.8505    1.0646   -2.1830 H       1  LIG1        0.0000
     58 H          -3.7684    1.3129   -0.8554 H       1  LIG1        0.0000
@<TRIPOS>BOND
     1     1     2    1
     2     2     3    1
     3     3     4   ar
     4     4     5   ar
     5     5     6   ar
     6     6     7    1
     7     7     8   am
     8     8     9    2
     9     8    10    1
    10    10    11    1
    11    11    12    2
    12    12    13    1
    13    13    14    1
    14    14    15   ar
    15    15    16   ar
    16    16    17   ar
    17    17    18   ar
    18    18    19   ar
    19    19    14   ar
    20    13    20    1
    21    20    21    2
    22    21    11    1
    23    21    22    1
    24    22    23   ar
    25    23    24   ar
    26    24    25   ar
    27    25    26    1
    28    25    27   ar
    29    27    28   ar
    30    28    22   ar
    31     6    29   ar
    32    29    30   ar
    33    30     3   ar
    34    30    31    1
    35    31    32    1
    36    32    33    2
    37    33    34    1
    38    34    35    2
    39    35    31    1
    40    35    36    1
    41     1    37    1
    42     1    38    1
    43     1    39    1
    44     4    40    1
    45     5    41    1
    46     7    42    1
    47    10    43    1
    48    10    44    1
    49    12    45    1
    50    15    46    1
    51    16    47    1
    52    17    48    1
    53    18    49    1
    54    19    50    1
    55    23    51    1
    56    24    52    1
    57    27    53    1
    58    28    54    1
    59    29    55    1
    60    36    56    1
    61    36    57    1
    62    36    58    1
