@<TRIPOS>MOLECULE
*****
 58 62 0 0 0
SMALL
USER_CHARGES

@<TRIPOS>ATOM
      1 C1         -1.2314   -4.7957    0.1934 C.3     1  LIG1        0.0000
      2 O2         -1.7685   -3.7695    1.0149 O.2     1  LIG1        0.0000
      3 C3         -1.0893   -2.6037    1.0067 C.3     1  LIG1        0.0000
      4 C4         -0.2241   -2.3183   -0.0448 C.3     1  LIG1        0.0000
      5 C5          0.4721   -1.1144   -0.0446 C.3     1  LIG1        0.0000
      6 C6          0.3001   -0.2123    1.0000 C.3     1  LIG1        0.0000
      7 N7          1.0000    1.0000    1.0000 N.am    1  LIG1        0.0000
      8 C8          2.3700    1.0000    1.0000 C.2     1  LIG1        0.0000
      9 O9          2.9700   -0.0392    1.0000 O.2     1  LIG1        0.0000
     10 C10         3.1300    2.3164    1.0000 C.3     1  LIG1        0.0000
     11 C11         4.4001    2.1682    1.8221 C.2     1  LIG1        0.0000
     12 C12         5.6743    2.3367    1.3773 C.2     1  LIG1        0.0000
     13 N13         6.4858    2.1072    2.4491 N.pl3   1  LIG1        0.0000
     14 C14         7.8841    2.1782    2.4290 C.3     1  LIG1        0.0000
     15 C15         8.6265    1.3750    3.2884 C.3     1  LIG1        0.0000
     16 C16        10.0150    1.4527    3.2622 C.3     1  LIG1        0.0000
     17 C17        10.6470    2.3266    2.3828 C.3     1  LIG1        0.0000
     18 C18         9.8966    3.1260    1.5267 C.3     1  LIG1        0.0000
     19 C19         8.5073    3.0549    1.5470 C.3     1  LIG1        0.0000
     20 N20         5.7564    1.8098    3.5019 N.2     1  LIG1        0.0000
     21 C21         4.4851    1.8278    3.1889 C.2     1  LIG1        0.0000
     22 C22         3.3735    1.5505    4.0781 C.3     1  LIG1        0.0000
     23 C23         2.9264    2.5399    4.9480 C.3     1  LIG1        0.0000
     24 C24         1.8614    2.2825    5.8050 C.3     1  LIG1        0.0000
     25 C25         1.2563    1.0302    5.7783 C.3     1  LIG1        0.0000
     26 Cl26       -0.1069    0.6938    6.8719 Cl      1  LIG1        0.0000
     27 C27         1.6975    0.0347    4.9123 C.3     1  LIG1        0.0000
     28 C28         2.7634    0.3009    4.0591 C.3     1  LIG1        0.0000
     29 C29        -0.5643   -0.4941    2.0525 C.3     1  LIG1        0.0000
     30 C30        -1.2586   -1.6987    2.0485 C.3     1  LIG1        0.0000
     31 N31        -2.1323   -2.0017    3.1008 N.pl3   1  LIG1        0.0000
     32 N32        -3.2854   -1.4345    3.3603 N.2     1  LIG1        0.0000
     33 N33        -3.8168   -1.9549    4.3849 N.2     1  LIG1        0.0000
     34 N34        -3.0224   -2.8962    4.8421 N.2     1  LIG1        0.0000
     35 C35        -1.9671   -2.9453    4.0620 C.2     1  LIG1        0.0000
     36 C36        -0.7795   -3.8853    4.2109 C.3     1  LIG1        0.0000
     37 H          -1.8013   -5.6141    0.2670 H       1  LIG1        0.0000
     38 H          -1.2136   -4.4864   -0.7574 H       1  LIG1        0.0000
     39 H          -0.3013   -5.0092    0.4920 H       1  LIG1        0.0000
     40 H          -0.1043   -2.9715   -0.7924 H       1  LIG1        0.0000
     41 H           1.0961   -0.8974   -0.7952 H       1  LIG1        0.0000
     42 H           0.5000    1.8660    1.0000 H       1  LIG1        0.0000
     43 H           2.5567    3.0323    1.3984 H       1  LIG1        0.0000
     44 H           3.3678    2.5639    0.0608 H       1  LIG1        0.0000
     45 H           5.9591    2.5802    0.4502 H       1  LIG1        0.0000
     46 H           8.1670    0.7487    3.9182 H       1  LIG1        0.0000
     47 H          10.5593    0.8804    3.8756 H       1  LIG1        0.0000
     48 H          11.6454    2.3802    2.3663 H       1  LIG1        0.0000
     49 H          10.3559    3.7519    0.8964 H       1  LIG1        0.0000
     50 H           7.9628    3.6278    0.9343 H       1  LIG1        0.0000
     51 H           3.3705    3.4358    4.9572 H       1  LIG1        0.0000
     52 H           1.5347    2.9892    6.4326 H       1  LIG1        0.0000
     53 H           1.2537   -0.8614    4.9033 H       1  LIG1        0.0000
     54 H           3.0909   -0.4061    3.4323 H       1  LIG1        0.0000
     55 H          -0.6844    0.1591    2.8000 H       1  LIG1        0.0000
     56 H          -0.1198   -3.7071    3.4809 H       1  LIG1        0.0000
     57 H          -0.3438   -3.7339    5.0982 H       1  LIG1        0.0000
     58 H          -1.0946   -4.8324    4.1516 H       1  LIG1        0.0000
@<TRIPOS>BOND
     1     1     2    1
     2     2     3    1
     3     3     4   ar
     4     4     5   ar
     5     5     6   ar
     6     6     7    1
     7     7     8   am
     8     8     9    2
     9     8    10    1
    10    10    11    1
    11    11    12    2
    12    12    13    1
    13    13    14    1
    14    14    15   ar
    15    15    16   ar
    16    16    17   ar
    17    17    18   ar
    18    18    19   ar
    19    19    14   ar
    20    13    20    1
    21    20    21    2
    22    21    11    1
    23    21    22    1
    24    22    23   ar
    25    23    24   ar
    26    24    25   ar
    27    25    26    1
    28    25    27   ar
    29    27    28   ar
    30    28    22   ar
    31     6    29   ar
    32    29    30   ar
    33    30     3   ar
    34    30    31    1
    35    31    32    1
    36    32    33    2
    37    33    34    1
    38    34    35    2
    39    35    31    1
    40    35    36    1
    41     1    37    1
    42     1    38    1
    43     1    39    1
    44     4    40    1
    45     5    41    1
    46     7    42    1
    47    10    43    1
    48    10    44    1
    49    12    45    1
    50    15    46    1
    51    16    47    1
    52    17    48    1
    53    18    49    1
    54    19    50    1
    55    23    51    1
    56    24    52    1
    57    27    53    1
    58    28    54    1
    59    29    55    1
    60    36    56    1
    61    36    57    1
    62    36    58    1
