@<TRIPOS>MOLECULE
*****
 58 62 0 0 0
SMALL
USER_CHARGES

@<TRIPOS>ATOM
      1 C1         -1.0373   -4.9073    1.4183 C.3     1  LIG1        0.0000
      2 O2         -1.7681   -3.7697    0.9848 O.2     1  LIG1        0.0000
      3 C3         -1.0874   -2.6048    0.9914 C.3     1  LIG1        0.0000
      4 C4          0.0581   -2.4812    1.7713 C.3     1  LIG1        0.0000
      5 C5          0.7531   -1.2767    1.7723 C.3     1  LIG1        0.0000
      6 C6          0.3001   -0.2123    1.0000 C.3     1  LIG1        0.0000
      7 N7          1.0000    1.0000    1.0000 N.am    1  LIG1        0.0000
      8 C8          2.3700    1.0000    1.0000 C.2     1  LIG1        0.0000
      9 O9          2.9700   -0.0392    1.0000 O.2     1  LIG1        0.0000
     10 C10         3.1300    2.3164    1.0000 C.3     1  LIG1        0.0000
     11 C11         4.4001    2.1682    0.1779 C.2     1  LIG1        0.0000
     12 C12         4.4757    1.8374   -1.1391 C.2     1  LIG1        0.0000
     13 N13         5.8028    1.8227   -1.4530 N.pl3   1  LIG1        0.0000
     14 C14         6.3269    1.5296   -2.7179 C.3     1  LIG1        0.0000
     15 C15         7.5825    0.9401   -2.8231 C.3     1  LIG1        0.0000
     16 C16         8.0956    0.6531   -4.0836 C.3     1  LIG1        0.0000
     17 C17         7.3547    0.9551   -5.2223 C.3     1  LIG1        0.0000
     18 C18         6.0998    1.5443   -5.1077 C.3     1  LIG1        0.0000
     19 C19         5.5795    1.8353   -3.8506 C.3     1  LIG1        0.0000
     20 N20         6.5136    2.1252   -0.3890 N.2     1  LIG1        0.0000
     21 C21         5.7243    2.3441    0.6327 C.2     1  LIG1        0.0000
     22 C22         6.1328    2.7000    1.9778 C.3     1  LIG1        0.0000
     23 C23         6.4737    4.0177    2.2662 C.3     1  LIG1        0.0000
     24 C24         6.8675    4.3680    3.5535 C.3     1  LIG1        0.0000
     25 C25         6.9148    3.3874    4.5392 C.3     1  LIG1        0.0000
     26 Cl26        7.4176    3.8284    6.1885 Cl      1  LIG1        0.0000
     27 C27         6.5765    2.0672    4.2594 C.3     1  LIG1        0.0000
     28 C28         6.1842    1.7260    2.9692 C.3     1  LIG1        0.0000
     29 C29        -0.8443   -0.3324    0.2188 C.3     1  LIG1        0.0000
     30 C30        -1.5362   -1.5384    0.2205 C.3     1  LIG1        0.0000
     31 N31        -2.6923   -1.6784   -0.5582 N.pl3   1  LIG1        0.0000
     32 N32        -2.7894   -1.5556   -1.8598 N.2     1  LIG1        0.0000
     33 N33        -3.9820   -1.7509   -2.2375 N.2     1  LIG1        0.0000
     34 N34        -4.7221   -2.0135   -1.1842 N.2     1  LIG1        0.0000
     35 C35        -3.9446   -1.9737   -0.1267 C.2     1  LIG1        0.0000
     36 C36        -4.3708   -2.2130    1.3146 C.3     1  LIG1        0.0000
     37 H          -1.6243   -5.7159    1.3776 H       1  LIG1        0.0000
     38 H          -0.2445   -5.0407    0.8237 H       1  LIG1        0.0000
     39 H          -0.7286   -4.7666    2.3590 H       1  LIG1        0.0000
     40 H           0.3781   -3.2500    2.3250 H       1  LIG1        0.0000
     41 H           1.5783   -1.1758    2.3280 H       1  LIG1        0.0000
     42 H           0.5000    1.8660    1.0000 H       1  LIG1        0.0000
     43 H           3.3678    2.5639    1.9392 H       1  LIG1        0.0000
     44 H           2.5567    3.0323    0.6016 H       1  LIG1        0.0000
     45 H           3.7114    1.6438   -1.7542 H       1  LIG1        0.0000
     46 H           8.1104    0.7251   -2.0015 H       1  LIG1        0.0000
     47 H           8.9972    0.2296   -4.1717 H       1  LIG1        0.0000
     48 H           7.7262    0.7475   -6.1272 H       1  LIG1        0.0000
     49 H           5.5715    1.7588   -5.9292 H       1  LIG1        0.0000
     50 H           4.6782    2.2594   -3.7623 H       1  LIG1        0.0000
     51 H           6.4356    4.7127    1.5483 H       1  LIG1        0.0000
     52 H           7.1135    5.3133    3.7678 H       1  LIG1        0.0000
     53 H           6.6149    1.3720    4.9772 H       1  LIG1        0.0000
     54 H           5.9393    0.7805    2.7546 H       1  LIG1        0.0000
     55 H          -1.1643    0.4362   -0.3351 H       1  LIG1        0.0000
     56 H          -3.5774   -2.1211    1.9164 H       1  LIG1        0.0000
     57 H          -5.0648   -1.5410    1.5729 H       1  LIG1        0.0000
     58 H          -4.7501   -3.1342    1.4014 H       1  LIG1        0.0000
@<TRIPOS>BOND
     1     1     2    1
     2     2     3    1
     3     3     4   ar
     4     4     5   ar
     5     5     6   ar
     6     6     7    1
     7     7     8   am
     8     8     9    2
     9     8    10    1
    10    10    11    1
    11    11    12    2
    12    12    13    1
    13    13    14    1
    14    14    15   ar
    15    15    16   ar
    16    16    17   ar
    17    17    18   ar
    18    18    19   ar
    19    19    14   ar
    20    13    20    1
    21    20    21    2
    22    21    11    1
    23    21    22    1
    24    22    23   ar
    25    23    24   ar
    26    24    25   ar
    27    25    26    1
    28    25    27   ar
    29    27    28   ar
    30    28    22   ar
    31     6    29   ar
    32    29    30   ar
    33    30     3   ar
    34    30    31    1
    35    31    32    1
    36    32    33    2
    37    33    34    1
    38    34    35    2
    39    35    31    1
    40    35    36    1
    41     1    37    1
    42     1    38    1
    43     1    39    1
    44     4    40    1
    45     5    41    1
    46     7    42    1
    47    10    43    1
    48    10    44    1
    49    12    45    1
    50    15    46    1
    51    16    47    1
    52    17    48    1
    53    18    49    1
    54    19    50    1
    55    23    51    1
    56    24    52    1
    57    27    53    1
    58    28    54    1
    59    29    55    1
    60    36    56    1
    61    36    57    1
    62    36    58    1
