@<TRIPOS>MOLECULE

  51   53
SMALL
USER_CHARGES
@<TRIPOS>ATOM
   1 C1          -2.8999    -0.4751     0.5251 C.3          1    LIG   0.0000
   2 C2          -1.5627    -0.9685    -0.0025 C.3          1    LIG   0.0000
   3 C3          -1.1020    -0.0169    -1.1062 C.3          1    LIG   0.0000
   4 C4           0.3586    -0.1681    -1.5029 C.3          1    LIG   0.0000
   5 N5           1.2331     0.8759    -0.9360 N.4          1    LIG   1.0000
   6 C6           2.5567     0.7101    -1.5506 C.3          1    LIG   0.0000
   7 C7           3.4611     1.8539    -1.1219 C.3          1    LIG   0.0000
   8 C8           2.8652     3.1802    -1.5659 C.3          1    LIG   0.0000
   9 C9           3.7615     4.3346    -1.1477 C.3          1    LIG   0.0000
  10 C10          5.1429     4.1564    -1.7566 C.3          1    LIG   0.0000
  11 C11          6.0472     5.3044    -1.3377 C.ar         1    LIG   0.0000
  12 C12          6.3188     5.5096     0.0110 C.ar         1    LIG   0.0000
  13 C13          7.1467     6.5627     0.3855 C.ar         1    LIG   0.0000
  14 C14          7.6937     7.3972    -0.5845 C.ar         1    LIG   0.0000
  15 C15          7.4170     7.1844    -1.9311 C.ar         1    LIG   0.0000
  16 C16          6.5893     6.1337    -2.3141 C.ar         1    LIG   0.0000
  17 C17          5.7464     2.8318    -1.3188 C.3          1    LIG   0.0000
  18 C18          4.8409     1.6848    -1.7374 C.3          1    LIG   0.0000
  19 C19          1.4964     0.8558     0.5170 C.3          1    LIG   0.0000
  20 C20          0.2581     0.7142     1.3982 C.3          1    LIG   0.0000
  21 S21         -0.3176    -0.9935     1.3155 S.3          1    LIG   0.0000
  22 H           -1.6705    -1.8890    -0.3781 H            1    LIG   0.0000
  23 H            0.8700     1.7733    -1.1867 H            1    LIG   0.0000
  24 H            3.5444     1.8497    -0.1254 H            1    LIG   0.0000
  25 H            5.0589     4.1590    -2.7531 H            1    LIG   0.0000
  26 H           -3.5697    -0.4697    -0.2173 H            1    LIG   0.0000
  27 H           -3.2152    -1.0826     1.2542 H            1    LIG   0.0000
  28 H           -2.7944     0.4517     0.8857 H            1    LIG   0.0000
  29 H           -1.2437     0.9207    -0.7889 H            1    LIG   0.0000
  30 H           -1.6642    -0.1832    -1.9163 H            1    LIG   0.0000
  31 H            0.6824    -1.0593    -1.1851 H            1    LIG   0.0000
  32 H            0.4217    -0.1268    -2.5001 H            1    LIG   0.0000
  33 H            2.4646     0.7131    -2.5463 H            1    LIG   0.0000
  34 H            2.9549    -0.1584    -1.2553 H            1    LIG   0.0000
  35 H            1.9651     3.2935    -1.1452 H            1    LIG   0.0000
  36 H            2.7704     3.1813    -2.5614 H            1    LIG   0.0000
  37 H            3.3658     5.1956    -1.4673 H            1    LIG   0.0000
  38 H            3.8374     4.3524    -0.1507 H            1    LIG   0.0000
  39 H            5.9231     4.9067     0.7038 H            1    LIG   0.0000
  40 H            7.3488     6.7202     1.3520 H            1    LIG   0.0000
  41 H            8.2886     8.1535    -0.3122 H            1    LIG   0.0000
  42 H            7.8131     7.7868    -2.6240 H            1    LIG   0.0000
  43 H            6.3864     5.9765    -3.2806 H            1    LIG   0.0000
  44 H            5.8486     2.8270    -0.3241 H            1    LIG   0.0000
  45 H            6.6432     2.7189    -1.7466 H            1    LIG   0.0000
  46 H            4.7591     1.6753    -2.7340 H            1    LIG   0.0000
  47 H            5.2374     0.8208    -1.4273 H            1    LIG   0.0000
  48 H            1.9538     1.7110     0.7607 H            1    LIG   0.0000
  49 H            2.1042     0.0857     0.7110 H            1    LIG   0.0000
  50 H            0.4891     0.9461     2.3431 H            1    LIG   0.0000
  51 H           -0.4602     1.3278     1.0704 H            1    LIG   0.0000
@<TRIPOS>BOND
   1        1        2 1
   2        2        3 1
   3        3        4 1
   4        4        5 1
   5        5        6 1
   6        6        7 1
   7        7        8 1
   8        8        9 1
   9        9       10 1
  10       10       11 1
  11       11       12 ar
  12       12       13 ar
  13       13       14 ar
  14       14       15 ar
  15       15       16 ar
  16       16       11 ar
  17       10       17 1
  18       17       18 1
  19       18        7 1
  20        5       19 1
  21       19       20 1
  22       20       21 1
  23       21        2 1
  24        2       22 1
  25        5       23 1
  26        7       24 1
  27       10       25 1
  28        1       26 1
  29        1       27 1
  30        1       28 1
  31        3       29 1
  32        3       30 1
  33        4       31 1
  34        4       32 1
  35        6       33 1
  36        6       34 1
  37        8       35 1
  38        8       36 1
  39        9       37 1
  40        9       38 1
  41       12       39 1
  42       13       40 1
  43       14       41 1
  44       15       42 1
  45       16       43 1
  46       17       44 1
  47       17       45 1
  48       18       46 1
  49       18       47 1
  50       19       48 1
  51       19       49 1
  52       20       50 1
  53       20       51 1

@<TRIPOS>MOLECULE

  51   53
SMALL
USER_CHARGES
@<TRIPOS>ATOM
   1 C1          -2.8999    -0.4751     0.5251 C.3          1    LIG   0.0000
   2 C2          -1.5627    -0.9685    -0.0025 C.3          1    LIG   0.0000
   3 C3          -1.1020    -0.0169    -1.1062 C.3          1    LIG   0.0000
   4 C4           0.3586    -0.1681    -1.5029 C.3          1    LIG   0.0000
   5 N5           1.2331     0.8759    -0.9360 N.4          1    LIG   1.0000
   6 C6           2.5567     0.7101    -1.5506 C.3          1    LIG   0.0000
   7 C7           3.4612     1.8540    -1.1219 C.3          1    LIG   0.0000
   8 C8           4.8342     1.6903    -1.7538 C.3          1    LIG   0.0000
   9 C9           5.7380     2.8391    -1.3350 C.3          1    LIG   0.0000
  10 C10          5.1356     4.1666    -1.7656 C.3          1    LIG   0.0000
  11 C11          6.0394     5.3110    -1.3356 C.ar         1    LIG   0.0000
  12 C12          7.3408     5.3801    -1.8219 C.ar         1    LIG   0.0000
  13 C13          8.1610     6.4302    -1.4227 C.ar         1    LIG   0.0000
  14 C14          7.6775     7.3971    -0.5465 C.ar         1    LIG   0.0000
  15 C15          6.3745     7.3202    -0.0654 C.ar         1    LIG   0.0000
  16 C16          5.5477     6.2728    -0.4592 C.ar         1    LIG   0.0000
  17 C17          3.7602     4.3269    -1.1380 C.3          1    LIG   0.0000
  18 C18          2.8561     3.1792    -1.5572 C.3          1    LIG   0.0000
  19 C19          1.4964     0.8558     0.5170 C.3          1    LIG   0.0000
  20 C20          0.2581     0.7142     1.3982 C.3          1    LIG   0.0000
  21 S21         -0.3176    -0.9935     1.3155 S.3          1    LIG   0.0000
  22 H           -1.6705    -1.8890    -0.3781 H            1    LIG   0.0000
  23 H            0.8700     1.7733    -1.1867 H            1    LIG   0.0000
  24 H            3.5537     1.8454    -0.1262 H            1    LIG   0.0000
  25 H            5.0446     4.1774    -2.7614 H            1    LIG   0.0000
  26 H           -3.5697    -0.4697    -0.2173 H            1    LIG   0.0000
  27 H           -3.2152    -1.0826     1.2542 H            1    LIG   0.0000
  28 H           -2.7944     0.4517     0.8857 H            1    LIG   0.0000
  29 H           -1.2437     0.9207    -0.7889 H            1    LIG   0.0000
  30 H           -1.6642    -0.1832    -1.9163 H            1    LIG   0.0000
  31 H            0.6824    -1.0593    -1.1851 H            1    LIG   0.0000
  32 H            0.4217    -0.1268    -2.5001 H            1    LIG   0.0000
  33 H            2.4646     0.7131    -2.5463 H            1    LIG   0.0000
  34 H            2.9549    -0.1584    -1.2553 H            1    LIG   0.0000
  35 H            4.7425     1.6868    -2.7496 H            1    LIG   0.0000
  36 H            5.2365     0.8256    -1.4531 H            1    LIG   0.0000
  37 H            5.8426     2.8311    -0.3406 H            1    LIG   0.0000
  38 H            6.6338     2.7280    -1.7653 H            1    LIG   0.0000
  39 H            7.6829     4.6826    -2.4515 H            1    LIG   0.0000
  40 H            9.0984     6.4902    -1.7655 H            1    LIG   0.0000
  41 H            8.2695     8.1509    -0.2614 H            1    LIG   0.0000
  42 H            6.0320     8.0180     0.5637 H            1    LIG   0.0000
  43 H            4.6104     6.2121    -0.1159 H            1    LIG   0.0000
  44 H            3.3580     5.1914    -1.4395 H            1    LIG   0.0000
  45 H            3.8497     4.3303    -0.1420 H            1    LIG   0.0000
  46 H            1.9595     3.2904    -1.1285 H            1    LIG   0.0000
  47 H            2.7530     3.1852    -2.5518 H            1    LIG   0.0000
  48 H            1.9538     1.7110     0.7607 H            1    LIG   0.0000
  49 H            2.1042     0.0857     0.7110 H            1    LIG   0.0000
  50 H            0.4891     0.9461     2.3431 H            1    LIG   0.0000
  51 H           -0.4602     1.3278     1.0704 H            1    LIG   0.0000
@<TRIPOS>BOND
   1        1        2 1
   2        2        3 1
   3        3        4 1
   4        4        5 1
   5        5        6 1
   6        6        7 1
   7        7        8 1
   8        8        9 1
   9        9       10 1
  10       10       11 1
  11       11       12 ar
  12       12       13 ar
  13       13       14 ar
  14       14       15 ar
  15       15       16 ar
  16       16       11 ar
  17       10       17 1
  18       17       18 1
  19       18        7 1
  20        5       19 1
  21       19       20 1
  22       20       21 1
  23       21        2 1
  24        2       22 1
  25        5       23 1
  26        7       24 1
  27       10       25 1
  28        1       26 1
  29        1       27 1
  30        1       28 1
  31        3       29 1
  32        3       30 1
  33        4       31 1
  34        4       32 1
  35        6       33 1
  36        6       34 1
  37        8       35 1
  38        8       36 1
  39        9       37 1
  40        9       38 1
  41       12       39 1
  42       13       40 1
  43       14       41 1
  44       15       42 1
  45       16       43 1
  46       17       44 1
  47       17       45 1
  48       18       46 1
  49       18       47 1
  50       19       48 1
  51       19       49 1
  52       20       50 1
  53       20       51 1

@<TRIPOS>MOLECULE

  51   53
SMALL
USER_CHARGES
@<TRIPOS>ATOM
   1 C1          -2.8999    -0.4751     0.5251 C.3          1    LIG   0.0000
   2 C2          -1.5627    -0.9685    -0.0025 C.3          1    LIG   0.0000
   3 C3          -1.1020    -0.0169    -1.1062 C.3          1    LIG   0.0000
   4 C4           0.3586    -0.1681    -1.5029 C.3          1    LIG   0.0000
   5 N5           1.2331     0.8759    -0.9360 N.4          1    LIG   1.0000
   6 C6           2.5567     0.7101    -1.5506 C.3          1    LIG   0.0000
   7 C7           3.4603     1.8528    -1.1223 C.3          1    LIG   0.0000
   8 C8           2.8768     3.1876    -1.5598 C.3          1    LIG   0.0000
   9 C9           3.7845     4.3496    -1.1841 C.3          1    LIG   0.0000
  10 C10          5.0566     3.8729    -0.5024 C.3          1    LIG   0.0000
  11 C11          5.9735     5.0445    -0.1894 C.ar         1    LIG   0.0000
  12 C12          5.5333     6.0555     0.6585 C.ar         1    LIG   0.0000
  13 C13          6.3783     7.1240     0.9389 C.ar         1    LIG   0.0000
  14 C14          7.6490     7.1738     0.3736 C.ar         1    LIG   0.0000
  15 C15          8.0811     6.1582    -0.4731 C.ar         1    LIG   0.0000
  16 C16          7.2418     5.0861    -0.7592 C.ar         1    LIG   0.0000
  17 C17          5.7507     2.8655    -1.4087 C.3          1    LIG   0.0000
  18 C18          4.8372     1.6958    -1.7460 C.3          1    LIG   0.0000
  19 C19          1.4964     0.8558     0.5170 C.3          1    LIG   0.0000
  20 C20          0.2581     0.7142     1.3982 C.3          1    LIG   0.0000
  21 S21         -0.3176    -0.9935     1.3155 S.3          1    LIG   0.0000
  22 H           -1.6705    -1.8890    -0.3781 H            1    LIG   0.0000
  23 H            0.8700     1.7733    -1.1867 H            1    LIG   0.0000
  24 H            3.5489     1.8447    -0.1263 H            1    LIG   0.0000
  25 H            4.8114     3.4190     0.3543 H            1    LIG   0.0000
  26 H           -3.5697    -0.4697    -0.2173 H            1    LIG   0.0000
  27 H           -3.2152    -1.0826     1.2542 H            1    LIG   0.0000
  28 H           -2.7944     0.4517     0.8857 H            1    LIG   0.0000
  29 H           -1.2437     0.9207    -0.7889 H            1    LIG   0.0000
  30 H           -1.6642    -0.1832    -1.9163 H            1    LIG   0.0000
  31 H            0.6824    -1.0593    -1.1851 H            1    LIG   0.0000
  32 H            0.4217    -0.1268    -2.5001 H            1    LIG   0.0000
  33 H            2.4646     0.7131    -2.5463 H            1    LIG   0.0000
  34 H            2.9549    -0.1584    -1.2553 H            1    LIG   0.0000
  35 H            1.9890     3.3138    -1.1172 H            1    LIG   0.0000
  36 H            2.7561     3.1786    -2.5525 H            1    LIG   0.0000
  37 H            4.0300     4.8504    -2.0142 H            1    LIG   0.0000
  38 H            3.2917     4.9575    -0.5616 H            1    LIG   0.0000
  39 H            4.6192     6.0145     1.0621 H            1    LIG   0.0000
  40 H            6.0727     7.8568     1.5468 H            1    LIG   0.0000
  41 H            8.2543     7.9433     0.5771 H            1    LIG   0.0000
  42 H            8.9953     6.1987    -0.8762 H            1    LIG   0.0000
  43 H            7.5469     4.3536    -1.3678 H            1    LIG   0.0000
  44 H            6.5653     2.5181    -0.9444 H            1    LIG   0.0000
  45 H            6.0196     3.3226    -2.2565 H            1    LIG   0.0000
  46 H            4.7376     1.6396    -2.7394 H            1    LIG   0.0000
  47 H            5.2525     0.8526    -1.4044 H            1    LIG   0.0000
  48 H            1.9538     1.7110     0.7607 H            1    LIG   0.0000
  49 H            2.1042     0.0857     0.7110 H            1    LIG   0.0000
  50 H            0.4891     0.9461     2.3431 H            1    LIG   0.0000
  51 H           -0.4602     1.3278     1.0704 H            1    LIG   0.0000
@<TRIPOS>BOND
   1        1        2 1
   2        2        3 1
   3        3        4 1
   4        4        5 1
   5        5        6 1
   6        6        7 1
   7        7        8 1
   8        8        9 1
   9        9       10 1
  10       10       11 1
  11       11       12 ar
  12       12       13 ar
  13       13       14 ar
  14       14       15 ar
  15       15       16 ar
  16       16       11 ar
  17       10       17 1
  18       17       18 1
  19       18        7 1
  20        5       19 1
  21       19       20 1
  22       20       21 1
  23       21        2 1
  24        2       22 1
  25        5       23 1
  26        7       24 1
  27       10       25 1
  28        1       26 1
  29        1       27 1
  30        1       28 1
  31        3       29 1
  32        3       30 1
  33        4       31 1
  34        4       32 1
  35        6       33 1
  36        6       34 1
  37        8       35 1
  38        8       36 1
  39        9       37 1
  40        9       38 1
  41       12       39 1
  42       13       40 1
  43       14       41 1
  44       15       42 1
  45       16       43 1
  46       17       44 1
  47       17       45 1
  48       18       46 1
  49       18       47 1
  50       19       48 1
  51       19       49 1
  52       20       50 1
  53       20       51 1

@<TRIPOS>MOLECULE

  51   53
SMALL
USER_CHARGES
@<TRIPOS>ATOM
   1 C1          -2.8999    -0.4751     0.5251 C.3          1    LIG   0.0000
   2 C2          -1.5627    -0.9685    -0.0025 C.3          1    LIG   0.0000
   3 C3          -1.1020    -0.0169    -1.1062 C.3          1    LIG   0.0000
   4 C4           0.3586    -0.1681    -1.5029 C.3          1    LIG   0.0000
   5 N5           1.2331     0.8759    -0.9360 N.4          1    LIG   1.0000
   6 C6           2.5567     0.7101    -1.5506 C.3          1    LIG   0.0000
   7 C7           3.4606     1.8533    -1.1221 C.3          1    LIG   0.0000
   8 C8           4.8400     1.7040    -1.7467 C.3          1    LIG   0.0000
   9 C9           5.7508     2.8679    -1.3829 C.3          1    LIG   0.0000
  10 C10          5.0482     3.8768    -0.4868 C.3          1    LIG   0.0000
  11 C11          5.9677     5.0521    -0.1963 C.ar         1    LIG   0.0000
  12 C12          6.4347     5.8363    -1.2459 C.ar         1    LIG   0.0000
  13 C13          7.2761     6.9092    -0.9711 C.ar         1    LIG   0.0000
  14 C14          7.6419     7.1887     0.3421 C.ar         1    LIG   0.0000
  15 C15          7.1700     6.3992     1.3856 C.ar         1    LIG   0.0000
  16 C16          6.3284     5.3237     1.1194 C.ar         1    LIG   0.0000
  17 C17          3.7866     4.3469    -1.1960 C.3          1    LIG   0.0000
  18 C18          2.8710     3.1852    -1.5579 C.3          1    LIG   0.0000
  19 C19          1.4964     0.8558     0.5170 C.3          1    LIG   0.0000
  20 C20          0.2581     0.7142     1.3982 C.3          1    LIG   0.0000
  21 S21         -0.3176    -0.9935     1.3155 S.3          1    LIG   0.0000
  22 H           -1.6705    -1.8890    -0.3781 H            1    LIG   0.0000
  23 H            0.8700     1.7733    -1.1867 H            1    LIG   0.0000
  24 H            3.5496     1.8448    -0.1261 H            1    LIG   0.0000
  25 H            4.7969     3.4342     0.3740 H            1    LIG   0.0000
  26 H           -3.5697    -0.4697    -0.2173 H            1    LIG   0.0000
  27 H           -3.2152    -1.0826     1.2542 H            1    LIG   0.0000
  28 H           -2.7944     0.4517     0.8857 H            1    LIG   0.0000
  29 H           -1.2437     0.9207    -0.7889 H            1    LIG   0.0000
  30 H           -1.6642    -0.1832    -1.9163 H            1    LIG   0.0000
  31 H            0.6824    -1.0593    -1.1851 H            1    LIG   0.0000
  32 H            0.4217    -0.1268    -2.5001 H            1    LIG   0.0000
  33 H            2.4646     0.7131    -2.5463 H            1    LIG   0.0000
  34 H            2.9549    -0.1584    -1.2553 H            1    LIG   0.0000
  35 H            4.7432     1.6667    -2.7413 H            1    LIG   0.0000
  36 H            5.2536     0.8543    -1.4199 H            1    LIG   0.0000
  37 H            6.5535     2.5131    -0.9035 H            1    LIG   0.0000
  38 H            6.0401     3.3272    -2.2227 H            1    LIG   0.0000
  39 H            6.1683     5.6310    -2.1877 H            1    LIG   0.0000
  40 H            7.6183     7.4800    -1.7176 H            1    LIG   0.0000
  41 H            8.2470     7.9607     0.5365 H            1    LIG   0.0000
  42 H            7.4356     6.6047     2.3275 H            1    LIG   0.0000
  43 H            5.9867     4.7524     1.8656 H            1    LIG   0.0000
  44 H            4.0467     4.8265    -2.0340 H            1    LIG   0.0000
  45 H            3.2915     4.9730    -0.5935 H            1    LIG   0.0000
  46 H            1.9888     3.3136    -1.1049 H            1    LIG   0.0000
  47 H            2.7381     3.1729    -2.5490 H            1    LIG   0.0000
  48 H            1.9538     1.7110     0.7607 H            1    LIG   0.0000
  49 H            2.1042     0.0857     0.7110 H            1    LIG   0.0000
  50 H            0.4891     0.9461     2.3431 H            1    LIG   0.0000
  51 H           -0.4602     1.3278     1.0704 H            1    LIG   0.0000
@<TRIPOS>BOND
   1        1        2 1
   2        2        3 1
   3        3        4 1
   4        4        5 1
   5        5        6 1
   6        6        7 1
   7        7        8 1
   8        8        9 1
   9        9       10 1
  10       10       11 1
  11       11       12 ar
  12       12       13 ar
  13       13       14 ar
  14       14       15 ar
  15       15       16 ar
  16       16       11 ar
  17       10       17 1
  18       17       18 1
  19       18        7 1
  20        5       19 1
  21       19       20 1
  22       20       21 1
  23       21        2 1
  24        2       22 1
  25        5       23 1
  26        7       24 1
  27       10       25 1
  28        1       26 1
  29        1       27 1
  30        1       28 1
  31        3       29 1
  32        3       30 1
  33        4       31 1
  34        4       32 1
  35        6       33 1
  36        6       34 1
  37        8       35 1
  38        8       36 1
  39        9       37 1
  40        9       38 1
  41       12       39 1
  42       13       40 1
  43       14       41 1
  44       15       42 1
  45       16       43 1
  46       17       44 1
  47       17       45 1
  48       18       46 1
  49       18       47 1
  50       19       48 1
  51       19       49 1
  52       20       50 1
  53       20       51 1

@<TRIPOS>MOLECULE

  51   53
SMALL
USER_CHARGES
@<TRIPOS>ATOM
   1 C1          -2.8999    -0.4751     0.5251 C.3          1    LIG   0.0000
   2 C2          -1.5627    -0.9685    -0.0025 C.3          1    LIG   0.0000
   3 C3          -1.1020    -0.0169    -1.1062 C.3          1    LIG   0.0000
   4 C4           0.3586    -0.1681    -1.5029 C.3          1    LIG   0.0000
   5 N5           1.2331     0.8759    -0.9360 N.4          1    LIG   1.0000
   6 C6           2.5567     0.7101    -1.5506 C.3          1    LIG   0.0000
   7 C7           3.4609     1.8536    -1.1220 C.3          1    LIG   0.0000
   8 C8           4.8221     1.6525    -1.7747 C.3          1    LIG   0.0000
   9 C9           5.6821     2.9029    -1.6739 C.3          1    LIG   0.0000
  10 C10          5.1377     3.8822    -0.6441 C.3          1    LIG   0.0000
  11 C11          6.0354     5.1029    -0.5207 C.ar         1    LIG   0.0000
  12 C12          6.2454     5.9174    -1.6286 C.ar         1    LIG   0.0000
  13 C13          7.0688     7.0318    -1.5070 C.ar         1    LIG   0.0000
  14 C14          7.6719     7.3222    -0.2870 C.ar         1    LIG   0.0000
  15 C15          7.4561     6.5022     0.8158 C.ar         1    LIG   0.0000
  16 C16          6.6345     5.3852     0.7026 C.ar         1    LIG   0.0000
  17 C17          3.7622     4.3506    -1.0952 C.3          1    LIG   0.0000
  18 C18          2.9106     3.1921    -1.5919 C.3          1    LIG   0.0000
  19 C19          1.4964     0.8558     0.5170 C.3          1    LIG   0.0000
  20 C20          0.2581     0.7142     1.3982 C.3          1    LIG   0.0000
  21 S21         -0.3176    -0.9935     1.3155 S.3          1    LIG   0.0000
  22 H           -1.6705    -1.8890    -0.3781 H            1    LIG   0.0000
  23 H            0.8700     1.7733    -1.1867 H            1    LIG   0.0000
  24 H            3.5578     1.8560    -0.1267 H            1    LIG   0.0000
  25 H            5.0634     3.4288     0.2441 H            1    LIG   0.0000
  26 H           -3.5697    -0.4697    -0.2173 H            1    LIG   0.0000
  27 H           -3.2152    -1.0826     1.2542 H            1    LIG   0.0000
  28 H           -2.7944     0.4517     0.8857 H            1    LIG   0.0000
  29 H           -1.2437     0.9207    -0.7889 H            1    LIG   0.0000
  30 H           -1.6642    -0.1832    -1.9163 H            1    LIG   0.0000
  31 H            0.6824    -1.0593    -1.1851 H            1    LIG   0.0000
  32 H            0.4217    -0.1268    -2.5001 H            1    LIG   0.0000
  33 H            2.4646     0.7131    -2.5463 H            1    LIG   0.0000
  34 H            2.9549    -0.1584    -1.2553 H            1    LIG   0.0000
  35 H            4.6890     1.4272    -2.7398 H            1    LIG   0.0000
  36 H            5.2925     0.8975    -1.3179 H            1    LIG   0.0000
  37 H            6.6093     2.6375    -1.4096 H            1    LIG   0.0000
  38 H            5.7057     3.3522    -2.5670 H            1    LIG   0.0000
  39 H            5.8092     5.7042    -2.5028 H            1    LIG   0.0000
  40 H            7.2273     7.6246    -2.2966 H            1    LIG   0.0000
  41 H            8.2634     8.1241    -0.2026 H            1    LIG   0.0000
  42 H            7.8917     6.7157     1.6902 H            1    LIG   0.0000
  43 H            6.4764     4.7918     1.4918 H            1    LIG   0.0000
  44 H            3.8719     5.0135    -1.8359 H            1    LIG   0.0000
  45 H            3.2987     4.7866    -0.3237 H            1    LIG   0.0000
  46 H            1.9794     3.3007    -1.2438 H            1    LIG   0.0000
  47 H            2.8963     3.2046    -2.5917 H            1    LIG   0.0000
  48 H            1.9538     1.7110     0.7607 H            1    LIG   0.0000
  49 H            2.1042     0.0857     0.7110 H            1    LIG   0.0000
  50 H            0.4891     0.9461     2.3431 H            1    LIG   0.0000
  51 H           -0.4602     1.3278     1.0704 H            1    LIG   0.0000
@<TRIPOS>BOND
   1        1        2 1
   2        2        3 1
   3        3        4 1
   4        4        5 1
   5        5        6 1
   6        6        7 1
   7        7        8 1
   8        8        9 1
   9        9       10 1
  10       10       11 1
  11       11       12 ar
  12       12       13 ar
  13       13       14 ar
  14       14       15 ar
  15       15       16 ar
  16       16       11 ar
  17       10       17 1
  18       17       18 1
  19       18        7 1
  20        5       19 1
  21       19       20 1
  22       20       21 1
  23       21        2 1
  24        2       22 1
  25        5       23 1
  26        7       24 1
  27       10       25 1
  28        1       26 1
  29        1       27 1
  30        1       28 1
  31        3       29 1
  32        3       30 1
  33        4       31 1
  34        4       32 1
  35        6       33 1
  36        6       34 1
  37        8       35 1
  38        8       36 1
  39        9       37 1
  40        9       38 1
  41       12       39 1
  42       13       40 1
  43       14       41 1
  44       15       42 1
  45       16       43 1
  46       17       44 1
  47       17       45 1
  48       18       46 1
  49       18       47 1
  50       19       48 1
  51       19       49 1
  52       20       50 1
  53       20       51 1

@<TRIPOS>MOLECULE

  51   53
SMALL
USER_CHARGES
@<TRIPOS>ATOM
   1 C1           2.7664     1.4237    -0.4363 C.3          1    LIG   0.0000
   2 C2           1.4444     0.6772    -0.5280 C.3          1    LIG   0.0000
   3 C3           1.6130    -0.6119     0.2651 C.3          1    LIG   0.0000
   4 C4           0.3717    -1.0642     1.0378 C.3          1    LIG   0.0000
   5 N5          -0.8895    -1.3734     0.3076 N.4          1    LIG   1.0000
   6 C6          -0.8126    -2.7146    -0.2906 C.3          1    LIG   0.0000
   7 C7          -2.1765    -3.1052    -0.8357 C.3          1    LIG   0.0000
   8 C8          -3.2001    -3.1159     0.2883 C.3          1    LIG   0.0000
   9 C9          -4.5699    -3.5093    -0.2411 C.3          1    LIG   0.0000
  10 C10         -4.4935    -4.8833    -0.8868 C.3          1    LIG   0.0000
  11 C11         -5.8587    -5.2813    -1.4244 C.ar         1    LIG   0.0000
  12 C12         -6.4659    -4.5031    -2.4045 C.ar         1    LIG   0.0000
  13 C13         -7.7153    -4.8741    -2.8902 C.ar         1    LIG   0.0000
  14 C14         -8.3444    -6.0128    -2.3961 C.ar         1    LIG   0.0000
  15 C15         -7.7296    -6.7853    -1.4161 C.ar         1    LIG   0.0000
  16 C16         -6.4802    -6.4209    -0.9244 C.ar         1    LIG   0.0000
  17 C17         -3.4711    -4.8824    -2.0117 C.3          1    LIG   0.0000
  18 C18         -2.1067    -4.4836    -1.4732 C.3          1    LIG   0.0000
  19 C19         -1.3085    -0.4615    -0.7728 C.3          1    LIG   0.0000
  20 C20         -1.4029     1.0171    -0.3981 C.3          1    LIG   0.0000
  21 S21          0.1589     1.7220     0.1895 S.3          1    LIG   0.0000
  22 H            1.2294     0.4705    -1.4825 H            1    LIG   0.0000
  23 H           -1.6267    -1.3916     0.9831 H            1    LIG   0.0000
  24 H           -2.4561    -2.4386    -1.5268 H            1    LIG   0.0000
  25 H           -4.2122    -5.5493    -0.1958 H            1    LIG   0.0000
  26 H            3.4945     0.8618    -0.8291 H            1    LIG   0.0000
  27 H            2.6994     2.2837    -0.9422 H            1    LIG   0.0000
  28 H            2.9746     1.6164     0.5226 H            1    LIG   0.0000
  29 H            2.3549    -0.4770     0.9218 H            1    LIG   0.0000
  30 H            1.8621    -1.3391    -0.3746 H            1    LIG   0.0000
  31 H            0.6277    -1.8930     1.5353 H            1    LIG   0.0000
  32 H            0.1569    -0.3370     1.6897 H            1    LIG   0.0000
  33 H           -0.5305    -3.3745     0.4058 H            1    LIG   0.0000
  34 H           -0.1450    -2.7097    -1.0351 H            1    LIG   0.0000
  35 H           -3.2537    -2.2030     0.6930 H            1    LIG   0.0000
  36 H           -2.9158    -3.7736     0.9858 H            1    LIG   0.0000
  37 H           -5.2243    -3.5329     0.5146 H            1    LIG   0.0000
  38 H           -4.8690    -2.8390    -0.9202 H            1    LIG   0.0000
  39 H           -6.0091    -3.6859    -2.7561 H            1    LIG   0.0000
  40 H           -8.1617    -4.3223    -3.5946 H            1    LIG   0.0000
  41 H           -9.2426    -6.2771    -2.7473 H            1    LIG   0.0000
  42 H           -8.1860    -7.6029    -1.0649 H            1    LIG   0.0000
  43 H           -6.0340    -6.9721    -0.2194 H            1    LIG   0.0000
  44 H           -3.7532    -4.2301    -2.7152 H            1    LIG   0.0000
  45 H           -3.4155    -5.7983    -2.4094 H            1    LIG   0.0000
  46 H           -1.8144    -5.1502    -0.7875 H            1    LIG   0.0000
  47 H           -1.4470    -4.4670    -2.2245 H            1    LIG   0.0000
  48 H           -2.2102    -0.7556    -1.0897 H            1    LIG   0.0000
  49 H           -0.6486    -0.5470    -1.5193 H            1    LIG   0.0000
  50 H           -1.6961     1.5291    -1.2054 H            1    LIG   0.0000
  51 H           -2.0858     1.1162     0.3257 H            1    LIG   0.0000
@<TRIPOS>BOND
   1        1        2 1
   2        2        3 1
   3        3        4 1
   4        4        5 1
   5        5        6 1
   6        6        7 1
   7        7        8 1
   8        8        9 1
   9        9       10 1
  10       10       11 1
  11       11       12 ar
  12       12       13 ar
  13       13       14 ar
  14       14       15 ar
  15       15       16 ar
  16       16       11 ar
  17       10       17 1
  18       17       18 1
  19       18        7 1
  20        5       19 1
  21       19       20 1
  22       20       21 1
  23       21        2 1
  24        2       22 1
  25        5       23 1
  26        7       24 1
  27       10       25 1
  28        1       26 1
  29        1       27 1
  30        1       28 1
  31        3       29 1
  32        3       30 1
  33        4       31 1
  34        4       32 1
  35        6       33 1
  36        6       34 1
  37        8       35 1
  38        8       36 1
  39        9       37 1
  40        9       38 1
  41       12       39 1
  42       13       40 1
  43       14       41 1
  44       15       42 1
  45       16       43 1
  46       17       44 1
  47       17       45 1
  48       18       46 1
  49       18       47 1
  50       19       48 1
  51       19       49 1
  52       20       50 1
  53       20       51 1

@<TRIPOS>MOLECULE

  51   53
SMALL
USER_CHARGES
@<TRIPOS>ATOM
   1 C1           2.7664     1.4237    -0.4363 C.3          1    LIG   0.0000
   2 C2           1.4444     0.6772    -0.5280 C.3          1    LIG   0.0000
   3 C3           1.6130    -0.6119     0.2651 C.3          1    LIG   0.0000
   4 C4           0.3717    -1.0642     1.0378 C.3          1    LIG   0.0000
   5 N5          -0.8895    -1.3734     0.3076 N.4          1    LIG   1.0000
   6 C6          -0.8126    -2.7146    -0.2906 C.3          1    LIG   0.0000
   7 C7          -2.1766    -3.1052    -0.8357 C.3          1    LIG   0.0000
   8 C8          -2.1062    -4.4913    -1.4564 C.3          1    LIG   0.0000
   9 C9          -3.4721    -4.8890    -1.9932 C.3          1    LIG   0.0000
  10 C10         -4.4993    -4.8857    -0.8728 C.3          1    LIG   0.0000
  11 C11         -5.8640    -5.2749    -1.4180 C.ar         1    LIG   0.0000
  12 C12         -6.0396    -6.5231    -2.0062 C.ar         1    LIG   0.0000
  13 C13         -7.2914    -6.8707    -2.5031 C.ar         1    LIG   0.0000
  14 C14         -8.3515    -5.9742    -2.4088 C.ar         1    LIG   0.0000
  15 C15         -8.1669    -4.7280    -1.8187 C.ar         1    LIG   0.0000
  16 C16         -6.9179    -4.3722    -1.3198 C.ar         1    LIG   0.0000
  17 C17         -4.5649    -3.5008    -0.2487 C.3          1    LIG   0.0000
  18 C18         -3.1999    -3.1033     0.2889 C.3          1    LIG   0.0000
  19 C19         -1.3085    -0.4615    -0.7728 C.3          1    LIG   0.0000
  20 C20         -1.4029     1.0171    -0.3981 C.3          1    LIG   0.0000
  21 S21          0.1589     1.7220     0.1895 S.3          1    LIG   0.0000
  22 H            1.2294     0.4705    -1.4825 H            1    LIG   0.0000
  23 H           -1.6267    -1.3916     0.9831 H            1    LIG   0.0000
  24 H           -2.4535    -2.4453    -1.5341 H            1    LIG   0.0000
  25 H           -4.2248    -5.5469    -0.1746 H            1    LIG   0.0000
  26 H            3.4945     0.8618    -0.8291 H            1    LIG   0.0000
  27 H            2.6994     2.2837    -0.9422 H            1    LIG   0.0000
  28 H            2.9746     1.6164     0.5226 H            1    LIG   0.0000
  29 H            2.3549    -0.4770     0.9218 H            1    LIG   0.0000
  30 H            1.8621    -1.3391    -0.3746 H            1    LIG   0.0000
  31 H            0.6277    -1.8930     1.5353 H            1    LIG   0.0000
  32 H            0.1569    -0.3370     1.6897 H            1    LIG   0.0000
  33 H           -0.5305    -3.3745     0.4058 H            1    LIG   0.0000
  34 H           -0.1450    -2.7097    -1.0351 H            1    LIG   0.0000
  35 H           -1.8180    -5.1510    -0.7623 H            1    LIG   0.0000
  36 H           -1.4444    -4.4855    -2.2060 H            1    LIG   0.0000
  37 H           -3.7515    -4.2382    -2.6991 H            1    LIG   0.0000
  38 H           -3.4173    -5.8061    -2.3881 H            1    LIG   0.0000
  39 H           -5.2743    -7.1635    -2.0711 H            1    LIG   0.0000
  40 H           -7.4296    -7.7652    -2.9282 H            1    LIG   0.0000
  41 H           -9.2503    -6.2269    -2.7669 H            1    LIG   0.0000
  42 H           -8.9322    -4.0878    -1.7531 H            1    LIG   0.0000
  43 H           -6.7792    -3.4774    -0.8952 H            1    LIG   0.0000
  44 H           -5.2264    -3.5072     0.5012 H            1    LIG   0.0000
  45 H           -4.8527    -2.8395    -0.9414 H            1    LIG   0.0000
  46 H           -3.2543    -2.1869     0.6854 H            1    LIG   0.0000
  47 H           -2.9188    -3.7551     0.9933 H            1    LIG   0.0000
  48 H           -2.2102    -0.7556    -1.0897 H            1    LIG   0.0000
  49 H           -0.6486    -0.5470    -1.5193 H            1    LIG   0.0000
  50 H           -1.6961     1.5291    -1.2054 H            1    LIG   0.0000
  51 H           -2.0858     1.1162     0.3257 H            1    LIG   0.0000
@<TRIPOS>BOND
   1        1        2 1
   2        2        3 1
   3        3        4 1
   4        4        5 1
   5        5        6 1
   6        6        7 1
   7        7        8 1
   8        8        9 1
   9        9       10 1
  10       10       11 1
  11       11       12 ar
  12       12       13 ar
  13       13       14 ar
  14       14       15 ar
  15       15       16 ar
  16       16       11 ar
  17       10       17 1
  18       17       18 1
  19       18        7 1
  20        5       19 1
  21       19       20 1
  22       20       21 1
  23       21        2 1
  24        2       22 1
  25        5       23 1
  26        7       24 1
  27       10       25 1
  28        1       26 1
  29        1       27 1
  30        1       28 1
  31        3       29 1
  32        3       30 1
  33        4       31 1
  34        4       32 1
  35        6       33 1
  36        6       34 1
  37        8       35 1
  38        8       36 1
  39        9       37 1
  40        9       38 1
  41       12       39 1
  42       13       40 1
  43       14       41 1
  44       15       42 1
  45       16       43 1
  46       17       44 1
  47       17       45 1
  48       18       46 1
  49       18       47 1
  50       19       48 1
  51       19       49 1
  52       20       50 1
  53       20       51 1

@<TRIPOS>MOLECULE

  51   53
SMALL
USER_CHARGES
@<TRIPOS>ATOM
   1 C1           2.7664     1.4237    -0.4363 C.3          1    LIG   0.0000
   2 C2           1.4444     0.6772    -0.5280 C.3          1    LIG   0.0000
   3 C3           1.6130    -0.6119     0.2651 C.3          1    LIG   0.0000
   4 C4           0.3717    -1.0642     1.0378 C.3          1    LIG   0.0000
   5 N5          -0.8895    -1.3734     0.3076 N.4          1    LIG   1.0000
   6 C6          -0.8126    -2.7146    -0.2906 C.3          1    LIG   0.0000
   7 C7          -2.1752    -3.1048    -0.8352 C.3          1    LIG   0.0000
   8 C8          -3.2110    -3.1200     0.2786 C.3          1    LIG   0.0000
   9 C9          -4.5785    -3.5526    -0.2295 C.3          1    LIG   0.0000
  10 C10         -4.5470    -3.8935    -1.7104 C.3          1    LIG   0.0000
  11 C11         -5.9084    -4.3786    -2.1822 C.ar         1    LIG   0.0000
  12 C12         -7.0105    -3.5354    -2.0864 C.ar         1    LIG   0.0000
  13 C13         -8.2524    -3.9876    -2.5198 C.ar         1    LIG   0.0000
  14 C14         -8.3827    -5.2707    -3.0424 C.ar         1    LIG   0.0000
  15 C15         -7.2751    -6.1071    -3.1346 C.ar         1    LIG   0.0000
  16 C16         -6.0293    -5.6629    -2.7029 C.ar         1    LIG   0.0000
  17 C17         -3.4796    -4.9530    -1.9470 C.3          1    LIG   0.0000
  18 C18         -2.1141    -4.4881    -1.4617 C.3          1    LIG   0.0000
  19 C19         -1.3085    -0.4615    -0.7728 C.3          1    LIG   0.0000
  20 C20         -1.4029     1.0171    -0.3981 C.3          1    LIG   0.0000
  21 S21          0.1589     1.7220     0.1895 S.3          1    LIG   0.0000
  22 H            1.2294     0.4705    -1.4825 H            1    LIG   0.0000
  23 H           -1.6267    -1.3916     0.9831 H            1    LIG   0.0000
  24 H           -2.4520    -2.4420    -1.5309 H            1    LIG   0.0000
  25 H           -4.3031    -3.0711    -2.2244 H            1    LIG   0.0000
  26 H            3.4945     0.8618    -0.8291 H            1    LIG   0.0000
  27 H            2.6994     2.2837    -0.9422 H            1    LIG   0.0000
  28 H            2.9746     1.6164     0.5226 H            1    LIG   0.0000
  29 H            2.3549    -0.4770     0.9218 H            1    LIG   0.0000
  30 H            1.8621    -1.3391    -0.3746 H            1    LIG   0.0000
  31 H            0.6277    -1.8930     1.5353 H            1    LIG   0.0000
  32 H            0.1569    -0.3370     1.6897 H            1    LIG   0.0000
  33 H           -0.5305    -3.3745     0.4058 H            1    LIG   0.0000
  34 H           -0.1450    -2.7097    -1.0351 H            1    LIG   0.0000
  35 H           -3.2849    -2.2005     0.6648 H            1    LIG   0.0000
  36 H           -2.9130    -3.7571     0.9894 H            1    LIG   0.0000
  37 H           -4.8739    -4.3593     0.2824 H            1    LIG   0.0000
  38 H           -5.2292    -2.8077    -0.0823 H            1    LIG   0.0000
  39 H           -6.9110    -2.6142    -1.7103 H            1    LIG   0.0000
  40 H           -9.0520    -3.3904    -2.4557 H            1    LIG   0.0000
  41 H           -9.2769    -5.5930    -3.3531 H            1    LIG   0.0000
  42 H           -7.3742    -7.0281    -3.5114 H            1    LIG   0.0000
  43 H           -5.2298    -6.2601    -2.7661 H            1    LIG   0.0000
  44 H           -3.4271    -5.1482    -2.9264 H            1    LIG   0.0000
  45 H           -3.7333    -5.7854    -1.4544 H            1    LIG   0.0000
  46 H           -1.7752    -5.1368    -0.7803 H            1    LIG   0.0000
  47 H           -1.4860    -4.4631    -2.2394 H            1    LIG   0.0000
  48 H           -2.2102    -0.7556    -1.0897 H            1    LIG   0.0000
  49 H           -0.6486    -0.5470    -1.5193 H            1    LIG   0.0000
  50 H           -1.6961     1.5291    -1.2054 H            1    LIG   0.0000
  51 H           -2.0858     1.1162     0.3257 H            1    LIG   0.0000
@<TRIPOS>BOND
   1        1        2 1
   2        2        3 1
   3        3        4 1
   4        4        5 1
   5        5        6 1
   6        6        7 1
   7        7        8 1
   8        8        9 1
   9        9       10 1
  10       10       11 1
  11       11       12 ar
  12       12       13 ar
  13       13       14 ar
  14       14       15 ar
  15       15       16 ar
  16       16       11 ar
  17       10       17 1
  18       17       18 1
  19       18        7 1
  20        5       19 1
  21       19       20 1
  22       20       21 1
  23       21        2 1
  24        2       22 1
  25        5       23 1
  26        7       24 1
  27       10       25 1
  28        1       26 1
  29        1       27 1
  30        1       28 1
  31        3       29 1
  32        3       30 1
  33        4       31 1
  34        4       32 1
  35        6       33 1
  36        6       34 1
  37        8       35 1
  38        8       36 1
  39        9       37 1
  40        9       38 1
  41       12       39 1
  42       13       40 1
  43       14       41 1
  44       15       42 1
  45       16       43 1
  46       17       44 1
  47       17       45 1
  48       18       46 1
  49       18       47 1
  50       19       48 1
  51       19       49 1
  52       20       50 1
  53       20       51 1

@<TRIPOS>MOLECULE

  51   53
SMALL
USER_CHARGES
@<TRIPOS>ATOM
   1 C1           2.7664     1.4237    -0.4363 C.3          1    LIG   0.0000
   2 C2           1.4444     0.6772    -0.5280 C.3          1    LIG   0.0000
   3 C3           1.6130    -0.6119     0.2651 C.3          1    LIG   0.0000
   4 C4           0.3717    -1.0642     1.0378 C.3          1    LIG   0.0000
   5 N5          -0.8895    -1.3734     0.3076 N.4          1    LIG   1.0000
   6 C6          -0.8126    -2.7146    -0.2906 C.3          1    LIG   0.0000
   7 C7          -2.1758    -3.1050    -0.8354 C.3          1    LIG   0.0000
   8 C8          -2.1222    -4.4911    -1.4606 C.3          1    LIG   0.0000
   9 C9          -3.4888    -4.9345    -1.9627 C.3          1    LIG   0.0000
  10 C10         -4.5533    -3.8767    -1.7130 C.3          1    LIG   0.0000
  11 C11         -5.9126    -4.3802    -2.1713 C.ar         1    LIG   0.0000
  12 C12         -6.4579    -5.5183    -1.5863 C.ar         1    LIG   0.0000
  13 C13         -7.7018    -5.9723    -2.0122 C.ar         1    LIG   0.0000
  14 C14         -8.3870    -5.2898    -3.0127 C.ar         1    LIG   0.0000
  15 C15         -7.8342    -4.1523    -3.5920 C.ar         1    LIG   0.0000
  16 C16         -6.5902    -3.6918    -3.1723 C.ar         1    LIG   0.0000
  17 C17         -4.5731    -3.5624    -0.2243 C.3          1    LIG   0.0000
  18 C18         -3.2081    -3.1144     0.2807 C.3          1    LIG   0.0000
  19 C19         -1.3085    -0.4615    -0.7728 C.3          1    LIG   0.0000
  20 C20         -1.4029     1.0171    -0.3981 C.3          1    LIG   0.0000
  21 S21          0.1589     1.7220     0.1895 S.3          1    LIG   0.0000
  22 H            1.2294     0.4705    -1.4825 H            1    LIG   0.0000
  23 H           -1.6267    -1.3916     0.9831 H            1    LIG   0.0000
  24 H           -2.4522    -2.4423    -1.5315 H            1    LIG   0.0000
  25 H           -4.3201    -3.0480    -2.2218 H            1    LIG   0.0000
  26 H            3.4945     0.8618    -0.8291 H            1    LIG   0.0000
  27 H            2.6994     2.2837    -0.9422 H            1    LIG   0.0000
  28 H            2.9746     1.6164     0.5226 H            1    LIG   0.0000
  29 H            2.3549    -0.4770     0.9218 H            1    LIG   0.0000
  30 H            1.8621    -1.3391    -0.3746 H            1    LIG   0.0000
  31 H            0.6277    -1.8930     1.5353 H            1    LIG   0.0000
  32 H            0.1569    -0.3370     1.6897 H            1    LIG   0.0000
  33 H           -0.5305    -3.3745     0.4058 H            1    LIG   0.0000
  34 H           -0.1450    -2.7097    -1.0351 H            1    LIG   0.0000
  35 H           -1.8014    -5.1440    -0.7744 H            1    LIG   0.0000
  36 H           -1.4836    -4.4752    -2.2299 H            1    LIG   0.0000
  37 H           -3.4312    -5.1100    -2.9455 H            1    LIG   0.0000
  38 H           -3.7506    -5.7753    -1.4888 H            1    LIG   0.0000
  39 H           -5.9612    -6.0047    -0.8676 H            1    LIG   0.0000
  40 H           -8.1037    -6.7896    -1.5992 H            1    LIG   0.0000
  41 H           -9.2811    -5.6186    -3.3167 H            1    LIG   0.0000
  42 H           -8.3311    -3.6654    -4.3103 H            1    LIG   0.0000
  43 H           -6.1877    -2.8750    -3.5857 H            1    LIG   0.0000
  44 H           -4.8491    -4.3833     0.2756 H            1    LIG   0.0000
  45 H           -5.2352    -2.8319    -0.0571 H            1    LIG   0.0000
  46 H           -3.2880    -2.1914     0.6571 H            1    LIG   0.0000
  47 H           -2.9052    -3.7419     0.9980 H            1    LIG   0.0000
  48 H           -2.2102    -0.7556    -1.0897 H            1    LIG   0.0000
  49 H           -0.6486    -0.5470    -1.5193 H            1    LIG   0.0000
  50 H           -1.6961     1.5291    -1.2054 H            1    LIG   0.0000
  51 H           -2.0858     1.1162     0.3257 H            1    LIG   0.0000
@<TRIPOS>BOND
   1        1        2 1
   2        2        3 1
   3        3        4 1
   4        4        5 1
   5        5        6 1
   6        6        7 1
   7        7        8 1
   8        8        9 1
   9        9       10 1
  10       10       11 1
  11       11       12 ar
  12       12       13 ar
  13       13       14 ar
  14       14       15 ar
  15       15       16 ar
  16       16       11 ar
  17       10       17 1
  18       17       18 1
  19       18        7 1
  20        5       19 1
  21       19       20 1
  22       20       21 1
  23       21        2 1
  24        2       22 1
  25        5       23 1
  26        7       24 1
  27       10       25 1
  28        1       26 1
  29        1       27 1
  30        1       28 1
  31        3       29 1
  32        3       30 1
  33        4       31 1
  34        4       32 1
  35        6       33 1
  36        6       34 1
  37        8       35 1
  38        8       36 1
  39        9       37 1
  40        9       38 1
  41       12       39 1
  42       13       40 1
  43       14       41 1
  44       15       42 1
  45       16       43 1
  46       17       44 1
  47       17       45 1
  48       18       46 1
  49       18       47 1
  50       19       48 1
  51       19       49 1
  52       20       50 1
  53       20       51 1

@<TRIPOS>MOLECULE

  51   53
SMALL
USER_CHARGES
@<TRIPOS>ATOM
   1 C1           2.7664     1.4237    -0.4363 C.3          1    LIG   0.0000
   2 C2           1.4444     0.6772    -0.5280 C.3          1    LIG   0.0000
   3 C3           1.6130    -0.6119     0.2651 C.3          1    LIG   0.0000
   4 C4           0.3717    -1.0642     1.0378 C.3          1    LIG   0.0000
   5 N5          -0.8895    -1.3734     0.3076 N.4          1    LIG   1.0000
   6 C6          -0.8126    -2.7146    -0.2906 C.3          1    LIG   0.0000
   7 C7          -2.1761    -3.1051    -0.8355 C.3          1    LIG   0.0000
   8 C8          -2.0626    -4.4954    -1.4466 C.3          1    LIG   0.0000
   9 C9          -3.4308    -5.1013    -1.7188 C.3          1    LIG   0.0000
  10 C10         -4.5327    -4.0525    -1.6749 C.3          1    LIG   0.0000
  11 C11         -5.8859    -4.6656    -1.9974 C.ar         1    LIG   0.0000
  12 C12         -6.3966    -5.6724    -1.1847 C.ar         1    LIG   0.0000
  13 C13         -7.6351    -6.2283    -1.4876 C.ar         1    LIG   0.0000
  14 C14         -8.3495    -5.7766    -2.5930 C.ar         1    LIG   0.0000
  15 C15         -7.8312    -4.7691    -3.4002 C.ar         1    LIG   0.0000
  16 C16         -6.5928    -4.2082    -3.1047 C.ar         1    LIG   0.0000
  17 C17         -4.5992    -3.4729    -0.2697 C.3          1    LIG   0.0000
  18 C18         -3.2128    -3.1667     0.2765 C.3          1    LIG   0.0000
  19 C19         -1.3085    -0.4615    -0.7728 C.3          1    LIG   0.0000
  20 C20         -1.4029     1.0171    -0.3981 C.3          1    LIG   0.0000
  21 S21          0.1589     1.7220     0.1895 S.3          1    LIG   0.0000
  22 H            1.2294     0.4705    -1.4825 H            1    LIG   0.0000
  23 H           -1.6267    -1.3916     0.9831 H            1    LIG   0.0000
  24 H           -2.4642    -2.4492    -1.5333 H            1    LIG   0.0000
  25 H           -4.3294    -3.3242    -2.3293 H            1    LIG   0.0000
  26 H            3.4945     0.8618    -0.8291 H            1    LIG   0.0000
  27 H            2.6994     2.2837    -0.9422 H            1    LIG   0.0000
  28 H            2.9746     1.6164     0.5226 H            1    LIG   0.0000
  29 H            2.3549    -0.4770     0.9218 H            1    LIG   0.0000
  30 H            1.8621    -1.3391    -0.3746 H            1    LIG   0.0000
  31 H            0.6277    -1.8930     1.5353 H            1    LIG   0.0000
  32 H            0.1569    -0.3370     1.6897 H            1    LIG   0.0000
  33 H           -0.5305    -3.3745     0.4058 H            1    LIG   0.0000
  34 H           -0.1450    -2.7097    -1.0351 H            1    LIG   0.0000
  35 H           -1.5653    -5.0885    -0.8134 H            1    LIG   0.0000
  36 H           -1.5591    -4.4310    -2.3082 H            1    LIG   0.0000
  37 H           -3.4229    -5.5246    -2.6248 H            1    LIG   0.0000
  38 H           -3.6196    -5.7982    -1.0270 H            1    LIG   0.0000
  39 H           -5.8790    -5.9930    -0.3914 H            1    LIG   0.0000
  40 H           -8.0123    -6.9528    -0.9107 H            1    LIG   0.0000
  41 H           -9.2397    -6.1781    -2.8082 H            1    LIG   0.0000
  42 H           -8.3490    -4.4479    -4.1932 H            1    LIG   0.0000
  43 H           -6.2151    -3.4842    -3.6819 H            1    LIG   0.0000
  44 H           -5.0467    -4.1336     0.3329 H            1    LIG   0.0000
  45 H           -5.1330    -2.6275    -0.2924 H            1    LIG   0.0000
  46 H           -3.2367    -2.2849     0.7476 H            1    LIG   0.0000
  47 H           -2.9530    -3.8834     0.9236 H            1    LIG   0.0000
  48 H           -2.2102    -0.7556    -1.0897 H            1    LIG   0.0000
  49 H           -0.6486    -0.5470    -1.5193 H            1    LIG   0.0000
  50 H           -1.6961     1.5291    -1.2054 H            1    LIG   0.0000
  51 H           -2.0858     1.1162     0.3257 H            1    LIG   0.0000
@<TRIPOS>BOND
   1        1        2 1
   2        2        3 1
   3        3        4 1
   4        4        5 1
   5        5        6 1
   6        6        7 1
   7        7        8 1
   8        8        9 1
   9        9       10 1
  10       10       11 1
  11       11       12 ar
  12       12       13 ar
  13       13       14 ar
  14       14       15 ar
  15       15       16 ar
  16       16       11 ar
  17       10       17 1
  18       17       18 1
  19       18        7 1
  20        5       19 1
  21       19       20 1
  22       20       21 1
  23       21        2 1
  24        2       22 1
  25        5       23 1
  26        7       24 1
  27       10       25 1
  28        1       26 1
  29        1       27 1
  30        1       28 1
  31        3       29 1
  32        3       30 1
  33        4       31 1
  34        4       32 1
  35        6       33 1
  36        6       34 1
  37        8       35 1
  38        8       36 1
  39        9       37 1
  40        9       38 1
  41       12       39 1
  42       13       40 1
  43       14       41 1
  44       15       42 1
  45       16       43 1
  46       17       44 1
  47       17       45 1
  48       18       46 1
  49       18       47 1
  50       19       48 1
  51       19       49 1
  52       20       50 1
  53       20       51 1

