@<TRIPOS>MOLECULE
*****
 51 53 0 0 0
SMALL
USER_CHARGES

@<TRIPOS>ATOM
      1 C1         -2.8999   -0.4751    0.5251 C.3     1  LIG1        0.0000
      2 C2         -1.5627   -0.9685   -0.0025 C.3     1  LIG1        0.0000
      3 C3         -1.1020   -0.0169   -1.1062 C.3     1  LIG1        0.0000
      4 C4          0.3586   -0.1681   -1.5029 C.3     1  LIG1        0.0000
      5 N5          1.2331    0.8759   -0.9360 N.4     1  LIG1        1.0000
      6 C6          2.5567    0.7101   -1.5506 C.3     1  LIG1        0.0000
      7 C7          3.4611    1.8539   -1.1219 C.3     1  LIG1        0.0000
      8 C8          2.8652    3.1802   -1.5659 C.3     1  LIG1        0.0000
      9 C9          3.7615    4.3346   -1.1477 C.3     1  LIG1        0.0000
     10 C10         5.1429    4.1564   -1.7566 C.3     1  LIG1        0.0000
     11 C11         6.0472    5.3044   -1.3377 C.ar    1  LIG1        0.0000
     12 C12         6.3188    5.5096    0.0110 C.ar    1  LIG1        0.0000
     13 C13         7.1467    6.5627    0.3855 C.ar    1  LIG1        0.0000
     14 C14         7.6937    7.3972   -0.5845 C.ar    1  LIG1        0.0000
     15 C15         7.4170    7.1844   -1.9311 C.ar    1  LIG1        0.0000
     16 C16         6.5893    6.1337   -2.3141 C.ar    1  LIG1        0.0000
     17 C17         5.7464    2.8318   -1.3188 C.3     1  LIG1        0.0000
     18 C18         4.8409    1.6848   -1.7374 C.3     1  LIG1        0.0000
     19 C19         1.4964    0.8558    0.5170 C.3     1  LIG1        0.0000
     20 C20         0.2581    0.7142    1.3982 C.3     1  LIG1        0.0000
     21 S21        -0.3176   -0.9935    1.3155 S.3     1  LIG1        0.0000
     22 H          -1.6705   -1.8890   -0.3781 H       1  LIG1        0.0000
     23 H           0.8700    1.7733   -1.1867 H       1  LIG1        0.0000
     24 H           3.5444    1.8497   -0.1254 H       1  LIG1        0.0000
     25 H           5.0589    4.1590   -2.7531 H       1  LIG1        0.0000
     26 H          -3.5697   -0.4697   -0.2173 H       1  LIG1        0.0000
     27 H          -3.2152   -1.0826    1.2542 H       1  LIG1        0.0000
     28 H          -2.7944    0.4517    0.8857 H       1  LIG1        0.0000
     29 H          -1.2437    0.9207   -0.7889 H       1  LIG1        0.0000
     30 H          -1.6642   -0.1832   -1.9163 H       1  LIG1        0.0000
     31 H           0.6824   -1.0593   -1.1851 H       1  LIG1        0.0000
     32 H           0.4217   -0.1268   -2.5001 H       1  LIG1        0.0000
     33 H           2.4646    0.7131   -2.5463 H       1  LIG1        0.0000
     34 H           2.9549   -0.1584   -1.2553 H       1  LIG1        0.0000
     35 H           1.9651    3.2935   -1.1452 H       1  LIG1        0.0000
     36 H           2.7704    3.1813   -2.5614 H       1  LIG1        0.0000
     37 H           3.3658    5.1956   -1.4673 H       1  LIG1        0.0000
     38 H           3.8374    4.3524   -0.1507 H       1  LIG1        0.0000
     39 H           5.9231    4.9067    0.7038 H       1  LIG1        0.0000
     40 H           7.3488    6.7202    1.3520 H       1  LIG1        0.0000
     41 H           8.2886    8.1535   -0.3122 H       1  LIG1        0.0000
     42 H           7.8131    7.7868   -2.6240 H       1  LIG1        0.0000
     43 H           6.3864    5.9765   -3.2806 H       1  LIG1        0.0000
     44 H           5.8486    2.8270   -0.3241 H       1  LIG1        0.0000
     45 H           6.6432    2.7189   -1.7466 H       1  LIG1        0.0000
     46 H           4.7591    1.6753   -2.7340 H       1  LIG1        0.0000
     47 H           5.2374    0.8208   -1.4273 H       1  LIG1        0.0000
     48 H           1.9538    1.7110    0.7607 H       1  LIG1        0.0000
     49 H           2.1042    0.0857    0.7110 H       1  LIG1        0.0000
     50 H           0.4891    0.9461    2.3431 H       1  LIG1        0.0000
     51 H          -0.4602    1.3278    1.0704 H       1  LIG1        0.0000
@<TRIPOS>UNITY_ATOM_ATTR
5 1
charge 1
@<TRIPOS>BOND
     1     1     2    1
     2     2     3    1
     3     3     4    1
     4     4     5    1
     5     5     6    1
     6     6     7    1
     7     7     8    1
     8     8     9    1
     9     9    10    1
    10    10    11    1
    11    11    12   ar
    12    12    13   ar
    13    13    14   ar
    14    14    15   ar
    15    15    16   ar
    16    16    11   ar
    17    10    17    1
    18    17    18    1
    19    18     7    1
    20     5    19    1
    21    19    20    1
    22    20    21    1
    23    21     2    1
    24     2    22    1
    25     5    23    1
    26     7    24    1
    27    10    25    1
    28     1    26    1
    29     1    27    1
    30     1    28    1
    31     3    29    1
    32     3    30    1
    33     4    31    1
    34     4    32    1
    35     6    33    1
    36     6    34    1
    37     8    35    1
    38     8    36    1
    39     9    37    1
    40     9    38    1
    41    12    39    1
    42    13    40    1
    43    14    41    1
    44    15    42    1
    45    16    43    1
    46    17    44    1
    47    17    45    1
    48    18    46    1
    49    18    47    1
    50    19    48    1
    51    19    49    1
    52    20    50    1
    53    20    51    1
