@<TRIPOS>MOLECULE
*****
 51 53 0 0 0
SMALL
USER_CHARGES

@<TRIPOS>ATOM
      1 C1         -2.8999   -0.4751    0.5251 C.3     1  LIG1        0.0000
      2 C2         -1.5627   -0.9685   -0.0025 C.3     1  LIG1        0.0000
      3 C3         -1.1020   -0.0169   -1.1062 C.3     1  LIG1        0.0000
      4 C4          0.3586   -0.1681   -1.5029 C.3     1  LIG1        0.0000
      5 N5          1.2331    0.8759   -0.9360 N.4     1  LIG1        1.0000
      6 C6          2.5567    0.7101   -1.5506 C.3     1  LIG1        0.0000
      7 C7          3.4603    1.8528   -1.1223 C.3     1  LIG1        0.0000
      8 C8          2.8768    3.1876   -1.5598 C.3     1  LIG1        0.0000
      9 C9          3.7845    4.3496   -1.1841 C.3     1  LIG1        0.0000
     10 C10         5.0566    3.8729   -0.5024 C.3     1  LIG1        0.0000
     11 C11         5.9735    5.0445   -0.1894 C.ar    1  LIG1        0.0000
     12 C12         5.5333    6.0555    0.6585 C.ar    1  LIG1        0.0000
     13 C13         6.3783    7.1240    0.9389 C.ar    1  LIG1        0.0000
     14 C14         7.6490    7.1738    0.3736 C.ar    1  LIG1        0.0000
     15 C15         8.0811    6.1582   -0.4731 C.ar    1  LIG1        0.0000
     16 C16         7.2418    5.0861   -0.7592 C.ar    1  LIG1        0.0000
     17 C17         5.7507    2.8655   -1.4087 C.3     1  LIG1        0.0000
     18 C18         4.8372    1.6958   -1.7460 C.3     1  LIG1        0.0000
     19 C19         1.4964    0.8558    0.5170 C.3     1  LIG1        0.0000
     20 C20         0.2581    0.7142    1.3982 C.3     1  LIG1        0.0000
     21 S21        -0.3176   -0.9935    1.3155 S.3     1  LIG1        0.0000
     22 H          -1.6705   -1.8890   -0.3781 H       1  LIG1        0.0000
     23 H           0.8700    1.7733   -1.1867 H       1  LIG1        0.0000
     24 H           3.5489    1.8447   -0.1263 H       1  LIG1        0.0000
     25 H           4.8114    3.4190    0.3543 H       1  LIG1        0.0000
     26 H          -3.5697   -0.4697   -0.2173 H       1  LIG1        0.0000
     27 H          -3.2152   -1.0826    1.2542 H       1  LIG1        0.0000
     28 H          -2.7944    0.4517    0.8857 H       1  LIG1        0.0000
     29 H          -1.2437    0.9207   -0.7889 H       1  LIG1        0.0000
     30 H          -1.6642   -0.1832   -1.9163 H       1  LIG1        0.0000
     31 H           0.6824   -1.0593   -1.1851 H       1  LIG1        0.0000
     32 H           0.4217   -0.1268   -2.5001 H       1  LIG1        0.0000
     33 H           2.4646    0.7131   -2.5463 H       1  LIG1        0.0000
     34 H           2.9549   -0.1584   -1.2553 H       1  LIG1        0.0000
     35 H           1.9890    3.3138   -1.1172 H       1  LIG1        0.0000
     36 H           2.7561    3.1786   -2.5525 H       1  LIG1        0.0000
     37 H           4.0300    4.8504   -2.0142 H       1  LIG1        0.0000
     38 H           3.2917    4.9575   -0.5616 H       1  LIG1        0.0000
     39 H           4.6192    6.0145    1.0621 H       1  LIG1        0.0000
     40 H           6.0727    7.8568    1.5468 H       1  LIG1        0.0000
     41 H           8.2543    7.9433    0.5771 H       1  LIG1        0.0000
     42 H           8.9953    6.1987   -0.8762 H       1  LIG1        0.0000
     43 H           7.5469    4.3536   -1.3678 H       1  LIG1        0.0000
     44 H           6.5653    2.5181   -0.9444 H       1  LIG1        0.0000
     45 H           6.0196    3.3226   -2.2565 H       1  LIG1        0.0000
     46 H           4.7376    1.6396   -2.7394 H       1  LIG1        0.0000
     47 H           5.2525    0.8526   -1.4044 H       1  LIG1        0.0000
     48 H           1.9538    1.7110    0.7607 H       1  LIG1        0.0000
     49 H           2.1042    0.0857    0.7110 H       1  LIG1        0.0000
     50 H           0.4891    0.9461    2.3431 H       1  LIG1        0.0000
     51 H          -0.4602    1.3278    1.0704 H       1  LIG1        0.0000
@<TRIPOS>UNITY_ATOM_ATTR
5 1
charge 1
@<TRIPOS>BOND
     1     1     2    1
     2     2     3    1
     3     3     4    1
     4     4     5    1
     5     5     6    1
     6     6     7    1
     7     7     8    1
     8     8     9    1
     9     9    10    1
    10    10    11    1
    11    11    12   ar
    12    12    13   ar
    13    13    14   ar
    14    14    15   ar
    15    15    16   ar
    16    16    11   ar
    17    10    17    1
    18    17    18    1
    19    18     7    1
    20     5    19    1
    21    19    20    1
    22    20    21    1
    23    21     2    1
    24     2    22    1
    25     5    23    1
    26     7    24    1
    27    10    25    1
    28     1    26    1
    29     1    27    1
    30     1    28    1
    31     3    29    1
    32     3    30    1
    33     4    31    1
    34     4    32    1
    35     6    33    1
    36     6    34    1
    37     8    35    1
    38     8    36    1
    39     9    37    1
    40     9    38    1
    41    12    39    1
    42    13    40    1
    43    14    41    1
    44    15    42    1
    45    16    43    1
    46    17    44    1
    47    17    45    1
    48    18    46    1
    49    18    47    1
    50    19    48    1
    51    19    49    1
    52    20    50    1
    53    20    51    1
