@<TRIPOS>MOLECULE
*****
 51 53 0 0 0
SMALL
USER_CHARGES

@<TRIPOS>ATOM
      1 C1          2.7664    1.4237   -0.4363 C.3     1  LIG1        0.0000
      2 C2          1.4444    0.6772   -0.5280 C.3     1  LIG1        0.0000
      3 C3          1.6130   -0.6119    0.2651 C.3     1  LIG1        0.0000
      4 C4          0.3717   -1.0642    1.0378 C.3     1  LIG1        0.0000
      5 N5         -0.8895   -1.3734    0.3076 N.4     1  LIG1        1.0000
      6 C6         -0.8126   -2.7146   -0.2906 C.3     1  LIG1        0.0000
      7 C7         -2.1752   -3.1048   -0.8352 C.3     1  LIG1        0.0000
      8 C8         -3.2110   -3.1200    0.2786 C.3     1  LIG1        0.0000
      9 C9         -4.5785   -3.5526   -0.2295 C.3     1  LIG1        0.0000
     10 C10        -4.5470   -3.8935   -1.7104 C.3     1  LIG1        0.0000
     11 C11        -5.9084   -4.3786   -2.1822 C.ar    1  LIG1        0.0000
     12 C12        -7.0105   -3.5354   -2.0864 C.ar    1  LIG1        0.0000
     13 C13        -8.2524   -3.9876   -2.5198 C.ar    1  LIG1        0.0000
     14 C14        -8.3827   -5.2707   -3.0424 C.ar    1  LIG1        0.0000
     15 C15        -7.2751   -6.1071   -3.1346 C.ar    1  LIG1        0.0000
     16 C16        -6.0293   -5.6629   -2.7029 C.ar    1  LIG1        0.0000
     17 C17        -3.4796   -4.9530   -1.9470 C.3     1  LIG1        0.0000
     18 C18        -2.1141   -4.4881   -1.4617 C.3     1  LIG1        0.0000
     19 C19        -1.3085   -0.4615   -0.7728 C.3     1  LIG1        0.0000
     20 C20        -1.4029    1.0171   -0.3981 C.3     1  LIG1        0.0000
     21 S21         0.1589    1.7220    0.1895 S.3     1  LIG1        0.0000
     22 H           1.2294    0.4705   -1.4825 H       1  LIG1        0.0000
     23 H          -1.6267   -1.3916    0.9831 H       1  LIG1        0.0000
     24 H          -2.4520   -2.4420   -1.5309 H       1  LIG1        0.0000
     25 H          -4.3031   -3.0711   -2.2244 H       1  LIG1        0.0000
     26 H           3.4945    0.8618   -0.8291 H       1  LIG1        0.0000
     27 H           2.6994    2.2837   -0.9422 H       1  LIG1        0.0000
     28 H           2.9746    1.6164    0.5226 H       1  LIG1        0.0000
     29 H           2.3549   -0.4770    0.9218 H       1  LIG1        0.0000
     30 H           1.8621   -1.3391   -0.3746 H       1  LIG1        0.0000
     31 H           0.6277   -1.8930    1.5353 H       1  LIG1        0.0000
     32 H           0.1569   -0.3370    1.6897 H       1  LIG1        0.0000
     33 H          -0.5305   -3.3745    0.4058 H       1  LIG1        0.0000
     34 H          -0.1450   -2.7097   -1.0351 H       1  LIG1        0.0000
     35 H          -3.2849   -2.2005    0.6648 H       1  LIG1        0.0000
     36 H          -2.9130   -3.7571    0.9894 H       1  LIG1        0.0000
     37 H          -4.8739   -4.3593    0.2824 H       1  LIG1        0.0000
     38 H          -5.2292   -2.8077   -0.0823 H       1  LIG1        0.0000
     39 H          -6.9110   -2.6142   -1.7103 H       1  LIG1        0.0000
     40 H          -9.0520   -3.3904   -2.4557 H       1  LIG1        0.0000
     41 H          -9.2769   -5.5930   -3.3531 H       1  LIG1        0.0000
     42 H          -7.3742   -7.0281   -3.5114 H       1  LIG1        0.0000
     43 H          -5.2298   -6.2601   -2.7661 H       1  LIG1        0.0000
     44 H          -3.4271   -5.1482   -2.9264 H       1  LIG1        0.0000
     45 H          -3.7333   -5.7854   -1.4544 H       1  LIG1        0.0000
     46 H          -1.7752   -5.1368   -0.7803 H       1  LIG1        0.0000
     47 H          -1.4860   -4.4631   -2.2394 H       1  LIG1        0.0000
     48 H          -2.2102   -0.7556   -1.0897 H       1  LIG1        0.0000
     49 H          -0.6486   -0.5470   -1.5193 H       1  LIG1        0.0000
     50 H          -1.6961    1.5291   -1.2054 H       1  LIG1        0.0000
     51 H          -2.0858    1.1162    0.3257 H       1  LIG1        0.0000
@<TRIPOS>UNITY_ATOM_ATTR
5 1
charge 1
@<TRIPOS>BOND
     1     1     2    1
     2     2     3    1
     3     3     4    1
     4     4     5    1
     5     5     6    1
     6     6     7    1
     7     7     8    1
     8     8     9    1
     9     9    10    1
    10    10    11    1
    11    11    12   ar
    12    12    13   ar
    13    13    14   ar
    14    14    15   ar
    15    15    16   ar
    16    16    11   ar
    17    10    17    1
    18    17    18    1
    19    18     7    1
    20     5    19    1
    21    19    20    1
    22    20    21    1
    23    21     2    1
    24     2    22    1
    25     5    23    1
    26     7    24    1
    27    10    25    1
    28     1    26    1
    29     1    27    1
    30     1    28    1
    31     3    29    1
    32     3    30    1
    33     4    31    1
    34     4    32    1
    35     6    33    1
    36     6    34    1
    37     8    35    1
    38     8    36    1
    39     9    37    1
    40     9    38    1
    41    12    39    1
    42    13    40    1
    43    14    41    1
    44    15    42    1
    45    16    43    1
    46    17    44    1
    47    17    45    1
    48    18    46    1
    49    18    47    1
    50    19    48    1
    51    19    49    1
    52    20    50    1
    53    20    51    1
