@<TRIPOS>MOLECULE
*****
 51 53 0 0 0
SMALL
USER_CHARGES

@<TRIPOS>ATOM
      1 C1         -2.8999   -0.4751    0.5251 C.3     1  LIG1        0.0000
      2 C2         -1.5627   -0.9685   -0.0025 C.3     1  LIG1        0.0000
      3 C3         -1.1020   -0.0169   -1.1062 C.3     1  LIG1        0.0000
      4 C4          0.3586   -0.1681   -1.5029 C.3     1  LIG1        0.0000
      5 N5          1.2331    0.8759   -0.9360 N.4     1  LIG1        1.0000
      6 C6          2.5567    0.7101   -1.5506 C.3     1  LIG1        0.0000
      7 C7          3.4612    1.8540   -1.1219 C.3     1  LIG1        0.0000
      8 C8          4.8342    1.6903   -1.7538 C.3     1  LIG1        0.0000
      9 C9          5.7380    2.8391   -1.3350 C.3     1  LIG1        0.0000
     10 C10         5.1356    4.1666   -1.7656 C.3     1  LIG1        0.0000
     11 C11         6.0394    5.3110   -1.3356 C.ar    1  LIG1        0.0000
     12 C12         7.3408    5.3801   -1.8219 C.ar    1  LIG1        0.0000
     13 C13         8.1610    6.4302   -1.4227 C.ar    1  LIG1        0.0000
     14 C14         7.6775    7.3971   -0.5465 C.ar    1  LIG1        0.0000
     15 C15         6.3745    7.3202   -0.0654 C.ar    1  LIG1        0.0000
     16 C16         5.5477    6.2728   -0.4592 C.ar    1  LIG1        0.0000
     17 C17         3.7602    4.3269   -1.1380 C.3     1  LIG1        0.0000
     18 C18         2.8561    3.1792   -1.5572 C.3     1  LIG1        0.0000
     19 C19         1.4964    0.8558    0.5170 C.3     1  LIG1        0.0000
     20 C20         0.2581    0.7142    1.3982 C.3     1  LIG1        0.0000
     21 S21        -0.3176   -0.9935    1.3155 S.3     1  LIG1        0.0000
     22 H          -1.6705   -1.8890   -0.3781 H       1  LIG1        0.0000
     23 H           0.8700    1.7733   -1.1867 H       1  LIG1        0.0000
     24 H           3.5537    1.8454   -0.1262 H       1  LIG1        0.0000
     25 H           5.0446    4.1774   -2.7614 H       1  LIG1        0.0000
     26 H          -3.5697   -0.4697   -0.2173 H       1  LIG1        0.0000
     27 H          -3.2152   -1.0826    1.2542 H       1  LIG1        0.0000
     28 H          -2.7944    0.4517    0.8857 H       1  LIG1        0.0000
     29 H          -1.2437    0.9207   -0.7889 H       1  LIG1        0.0000
     30 H          -1.6642   -0.1832   -1.9163 H       1  LIG1        0.0000
     31 H           0.6824   -1.0593   -1.1851 H       1  LIG1        0.0000
     32 H           0.4217   -0.1268   -2.5001 H       1  LIG1        0.0000
     33 H           2.4646    0.7131   -2.5463 H       1  LIG1        0.0000
     34 H           2.9549   -0.1584   -1.2553 H       1  LIG1        0.0000
     35 H           4.7425    1.6868   -2.7496 H       1  LIG1        0.0000
     36 H           5.2365    0.8256   -1.4531 H       1  LIG1        0.0000
     37 H           5.8426    2.8311   -0.3406 H       1  LIG1        0.0000
     38 H           6.6338    2.7280   -1.7653 H       1  LIG1        0.0000
     39 H           7.6829    4.6826   -2.4515 H       1  LIG1        0.0000
     40 H           9.0984    6.4902   -1.7655 H       1  LIG1        0.0000
     41 H           8.2695    8.1509   -0.2614 H       1  LIG1        0.0000
     42 H           6.0320    8.0180    0.5637 H       1  LIG1        0.0000
     43 H           4.6104    6.2121   -0.1159 H       1  LIG1        0.0000
     44 H           3.3580    5.1914   -1.4395 H       1  LIG1        0.0000
     45 H           3.8497    4.3303   -0.1420 H       1  LIG1        0.0000
     46 H           1.9595    3.2904   -1.1285 H       1  LIG1        0.0000
     47 H           2.7530    3.1852   -2.5518 H       1  LIG1        0.0000
     48 H           1.9538    1.7110    0.7607 H       1  LIG1        0.0000
     49 H           2.1042    0.0857    0.7110 H       1  LIG1        0.0000
     50 H           0.4891    0.9461    2.3431 H       1  LIG1        0.0000
     51 H          -0.4602    1.3278    1.0704 H       1  LIG1        0.0000
@<TRIPOS>UNITY_ATOM_ATTR
5 1
charge 1
@<TRIPOS>BOND
     1     1     2    1
     2     2     3    1
     3     3     4    1
     4     4     5    1
     5     5     6    1
     6     6     7    1
     7     7     8    1
     8     8     9    1
     9     9    10    1
    10    10    11    1
    11    11    12   ar
    12    12    13   ar
    13    13    14   ar
    14    14    15   ar
    15    15    16   ar
    16    16    11   ar
    17    10    17    1
    18    17    18    1
    19    18     7    1
    20     5    19    1
    21    19    20    1
    22    20    21    1
    23    21     2    1
    24     2    22    1
    25     5    23    1
    26     7    24    1
    27    10    25    1
    28     1    26    1
    29     1    27    1
    30     1    28    1
    31     3    29    1
    32     3    30    1
    33     4    31    1
    34     4    32    1
    35     6    33    1
    36     6    34    1
    37     8    35    1
    38     8    36    1
    39     9    37    1
    40     9    38    1
    41    12    39    1
    42    13    40    1
    43    14    41    1
    44    15    42    1
    45    16    43    1
    46    17    44    1
    47    17    45    1
    48    18    46    1
    49    18    47    1
    50    19    48    1
    51    19    49    1
    52    20    50    1
    53    20    51    1
