@<TRIPOS>MOLECULE

  72   75
SMALL
USER_CHARGES
@<TRIPOS>ATOM
   1 C1          -3.8371    -0.4339     2.6998 C.3          1    LIG   0.0000
   2 C2          -3.7352    -1.7895     2.0198 C.2          1    LIG   0.0000
   3 C3          -4.9266    -2.7334     2.0241 C.3          1    LIG   0.0000
   4 C4          -2.6291    -2.1416     1.4344 C.2          1    LIG   0.0000
   5 C5          -1.4377    -1.1977     1.4301 C.3          1    LIG   0.0000
   6 C6          -1.0627    -0.8618    -0.0041 C.3          1    LIG   0.0000
   7 N7           0.0889     0.0505    -0.0083 N.pl3        1    LIG   0.0000
   8 C8           1.4004    -0.3102    -0.0301 C.2          1    LIG   0.0000
   9 C9           1.9531    -1.7256    -0.0595 C.3          1    LIG   0.0000
  10 O10          2.1045    -2.1468    -1.4071 O.3          1    LIG   0.0000
  11 C11          2.5905    -3.3950    -1.5748 C.ar         1    LIG   0.0000
  12 C12          2.7707    -3.8885    -2.8622 C.ar         1    LIG   0.0000
  13 C13          3.2713    -5.1764    -3.0241 C.ar         1    LIG   0.0000
  14 C14          3.4739    -5.7299    -4.4248 C.3          1    LIG   0.0000
  15 C15          3.5900    -5.9676    -1.9259 C.ar         1    LIG   0.0000
  16 C16          3.4006    -5.4499    -0.6494 C.ar         1    LIG   0.0000
  17 C17          3.7435    -6.3005     0.5625 C.3          1    LIG   0.0000
  18 C18          2.9015    -4.1658    -0.4596 C.ar         1    LIG   0.0000
  19 N19          2.0968     0.8006    -0.0246 N.2          1    LIG   0.0000
  20 N20          1.2808     1.8391     0.0060 N.2          1    LIG   0.0000
  21 C21          0.0426     1.4109     0.0126 C.2          1    LIG   0.0000
  22 N22         -1.1092     2.2046     0.0325 N.pl3        1    LIG   0.0000
  23 C23         -2.4206     1.5355     0.0369 C.3          1    LIG   0.0000
  24 C24         -3.4611     2.3202     0.8238 C.3          1    LIG   0.0000
  25 C25         -3.4515     3.8059     0.4892 C.3          1    LIG   0.0000
  26 N26         -4.4258     4.4807     1.3630 N.am         1    LIG   0.0000
  27 C27         -5.4571     5.1966     0.8145 C.2          1    LIG   0.0000
  28 O28         -5.5664     5.2737    -0.3780 O.2          1    LIG   0.0000
  29 C29         -6.4163     5.8609     1.6749 C.2          1    LIG   0.0000
  30 C30         -6.4189     5.8621     3.0848 C.2          1    LIG   0.0000
  31 C31         -7.5023     6.6141     3.4147 C.2          1    LIG   0.0000
  32 C32         -7.9686     6.9379     4.8247 C.3          1    LIG   0.0000
  33 O33         -8.0782     7.0070     2.3073 O.2          1    LIG   0.0000
  34 N34         -7.4454     6.5751     1.2930 N.2          1    LIG   0.0000
  35 C35         -2.0725     4.3547     0.8310 C.3          1    LIG   0.0000
  36 C36         -0.9568     3.6693     0.0538 C.3          1    LIG   0.0000
  37 H           -4.7492    -0.3273     3.0956 H            1    LIG   0.0000
  38 H           -3.1502    -0.3718     3.4239 H            1    LIG   0.0000
  39 H           -3.6789     0.2891     2.0273 H            1    LIG   0.0000
  40 H           -5.6875    -2.3075     2.5137 H            1    LIG   0.0000
  41 H           -5.2024    -2.9264     1.0825 H            1    LIG   0.0000
  42 H           -4.6737    -3.5873     2.4791 H            1    LIG   0.0000
  43 H           -2.5621    -3.0334     0.9871 H            1    LIG   0.0000
  44 H           -0.6623    -1.6375     1.8831 H            1    LIG   0.0000
  45 H           -1.6760    -0.3578     1.9177 H            1    LIG   0.0000
  46 H           -0.8243    -1.7016    -0.4918 H            1    LIG   0.0000
  47 H           -1.8381    -0.4219    -0.4571 H            1    LIG   0.0000
  48 H            2.8421    -1.7459     0.3980 H            1    LIG   0.0000
  49 H            1.3212    -2.3401     0.4128 H            1    LIG   0.0000
  50 H            2.5444    -3.3272    -3.6583 H            1    LIG   0.0000
  51 H            3.8370    -6.6598    -4.3664 H            1    LIG   0.0000
  52 H            2.5983    -5.7436    -4.9076 H            1    LIG   0.0000
  53 H            4.1197    -5.1504    -4.9220 H            1    LIG   0.0000
  54 H            3.9489    -6.8924    -2.0520 H            1    LIG   0.0000
  55 H            4.0875    -7.1892     0.2595 H            1    LIG   0.0000
  56 H            4.4450    -5.8392     1.1058 H            1    LIG   0.0000
  57 H            2.9237    -6.4327     1.1197 H            1    LIG   0.0000
  58 H            2.7684    -3.8030     0.4627 H            1    LIG   0.0000
  59 H           -2.3193     0.6303     0.4497 H            1    LIG   0.0000
  60 H           -2.7361     1.4380    -0.9070 H            1    LIG   0.0000
  61 H           -4.3664     1.9508     0.6145 H            1    LIG   0.0000
  62 H           -3.2739     2.2107     1.8000 H            1    LIG   0.0000
  63 H           -3.6690     3.9578    -0.4750 H            1    LIG   0.0000
  64 H           -4.3346     4.4164     2.3567 H            1    LIG   0.0000
  65 H           -5.7720     5.4127     3.7009 H            1    LIG   0.0000
  66 H           -7.3496     6.5142     5.4860 H            1    LIG   0.0000
  67 H           -7.9691     7.9292     4.9562 H            1    LIG   0.0000
  68 H           -8.8938     6.5833     4.9595 H            1    LIG   0.0000
  69 H           -1.9091     4.2223     1.8087 H            1    LIG   0.0000
  70 H           -2.0558     5.3319     0.6196 H            1    LIG   0.0000
  71 H           -0.9657     4.0074    -0.8873 H            1    LIG   0.0000
  72 H           -0.0813     3.8954     0.4810 H            1    LIG   0.0000
@<TRIPOS>BOND
   1        1        2 1
   2        2        3 1
   3        2        4 2
   4        4        5 1
   5        5        6 1
   6        6        7 1
   7        7        8 1
   8        8        9 1
   9        9       10 1
  10       10       11 1
  11       11       12 ar
  12       12       13 ar
  13       13       14 1
  14       13       15 ar
  15       15       16 ar
  16       16       17 1
  17       16       18 ar
  18       18       11 ar
  19        8       19 2
  20       19       20 1
  21       20       21 2
  22       21        7 1
  23       21       22 1
  24       22       23 1
  25       23       24 1
  26       24       25 1
  27       25       26 1
  28       26       27 am
  29       27       28 2
  30       27       29 1
  31       29       30 1
  32       30       31 2
  33       31       32 1
  34       31       33 1
  35       33       34 1
  36       34       29 2
  37       25       35 1
  38       35       36 1
  39       36       22 1
  40        1       37 1
  41        1       38 1
  42        1       39 1
  43        3       40 1
  44        3       41 1
  45        3       42 1
  46        4       43 1
  47        5       44 1
  48        5       45 1
  49        6       46 1
  50        6       47 1
  51        9       48 1
  52        9       49 1
  53       12       50 1
  54       14       51 1
  55       14       52 1
  56       14       53 1
  57       15       54 1
  58       17       55 1
  59       17       56 1
  60       17       57 1
  61       18       58 1
  62       23       59 1
  63       23       60 1
  64       24       61 1
  65       24       62 1
  66       25       63 1
  67       26       64 1
  68       30       65 1
  69       32       66 1
  70       32       67 1
  71       32       68 1
  72       35       69 1
  73       35       70 1
  74       36       71 1
  75       36       72 1

@<TRIPOS>MOLECULE

  72   75
SMALL
USER_CHARGES
@<TRIPOS>ATOM
   1 C1          -3.8371    -0.4339     2.6998 C.3          1    LIG   0.0000
   2 C2          -3.7352    -1.7895     2.0198 C.2          1    LIG   0.0000
   3 C3          -4.9266    -2.7334     2.0241 C.3          1    LIG   0.0000
   4 C4          -2.6291    -2.1416     1.4344 C.2          1    LIG   0.0000
   5 C5          -1.4377    -1.1977     1.4301 C.3          1    LIG   0.0000
   6 C6          -1.0627    -0.8618    -0.0041 C.3          1    LIG   0.0000
   7 N7           0.0889     0.0505    -0.0083 N.pl3        1    LIG   0.0000
   8 C8           1.4004    -0.3102    -0.0301 C.2          1    LIG   0.0000
   9 C9           1.9531    -1.7256    -0.0595 C.3          1    LIG   0.0000
  10 O10          3.3722    -1.6793    -0.0808 O.3          1    LIG   0.0000
  11 C11          3.9647    -1.4665     1.1134 C.ar         1    LIG   0.0000
  12 C12          5.3521    -1.4065     1.1842 C.ar         1    LIG   0.0000
  13 C13          5.9529    -1.1877     2.4198 C.ar         1    LIG   0.0000
  14 C14          7.4681    -1.1195     2.5135 C.3          1    LIG   0.0000
  15 C15          5.1910    -1.0302     3.5723 C.ar         1    LIG   0.0000
  16 C16          3.8055    -1.0942     3.4737 C.ar         1    LIG   0.0000
  17 C17          2.9569    -0.9243     4.7230 C.3          1    LIG   0.0000
  18 C18          3.1797    -1.3121     2.2511 C.ar         1    LIG   0.0000
  19 N19          2.0968     0.8006    -0.0246 N.2          1    LIG   0.0000
  20 N20          1.2808     1.8391     0.0060 N.2          1    LIG   0.0000
  21 C21          0.0426     1.4109     0.0126 C.2          1    LIG   0.0000
  22 N22         -1.1092     2.2046     0.0325 N.pl3        1    LIG   0.0000
  23 C23         -2.4206     1.5355     0.0369 C.3          1    LIG   0.0000
  24 C24         -3.4611     2.3202     0.8238 C.3          1    LIG   0.0000
  25 C25         -3.4515     3.8059     0.4892 C.3          1    LIG   0.0000
  26 N26         -4.4258     4.4807     1.3630 N.am         1    LIG   0.0000
  27 C27         -5.4571     5.1966     0.8145 C.2          1    LIG   0.0000
  28 O28         -5.5664     5.2737    -0.3780 O.2          1    LIG   0.0000
  29 C29         -6.4163     5.8609     1.6749 C.2          1    LIG   0.0000
  30 C30         -6.4189     5.8621     3.0848 C.2          1    LIG   0.0000
  31 C31         -7.5023     6.6141     3.4147 C.2          1    LIG   0.0000
  32 C32         -7.9686     6.9379     4.8247 C.3          1    LIG   0.0000
  33 O33         -8.0782     7.0070     2.3073 O.2          1    LIG   0.0000
  34 N34         -7.4454     6.5751     1.2930 N.2          1    LIG   0.0000
  35 C35         -2.0725     4.3547     0.8310 C.3          1    LIG   0.0000
  36 C36         -0.9568     3.6693     0.0538 C.3          1    LIG   0.0000
  37 H           -4.7492    -0.3273     3.0956 H            1    LIG   0.0000
  38 H           -3.1502    -0.3718     3.4239 H            1    LIG   0.0000
  39 H           -3.6789     0.2891     2.0273 H            1    LIG   0.0000
  40 H           -5.6875    -2.3075     2.5137 H            1    LIG   0.0000
  41 H           -5.2024    -2.9264     1.0825 H            1    LIG   0.0000
  42 H           -4.6737    -3.5873     2.4791 H            1    LIG   0.0000
  43 H           -2.5621    -3.0334     0.9871 H            1    LIG   0.0000
  44 H           -0.6623    -1.6375     1.8831 H            1    LIG   0.0000
  45 H           -1.6760    -0.3578     1.9177 H            1    LIG   0.0000
  46 H           -0.8243    -1.7016    -0.4918 H            1    LIG   0.0000
  47 H           -1.8381    -0.4219    -0.4571 H            1    LIG   0.0000
  48 H            1.6479    -2.2196     0.7547 H            1    LIG   0.0000
  49 H            1.6226    -2.1956    -0.8779 H            1    LIG   0.0000
  50 H            5.9086    -1.5187     0.3610 H            1    LIG   0.0000
  51 H            7.7364    -0.9581     3.4632 H            1    LIG   0.0000
  52 H            7.8608    -1.9835     2.1984 H            1    LIG   0.0000
  53 H            7.8042    -0.3720     1.9405 H            1    LIG   0.0000
  54 H            5.6316    -0.8738     4.4562 H            1    LIG   0.0000
  55 H            3.5522    -0.7767     5.5128 H            1    LIG   0.0000
  56 H            2.3514    -0.1364     4.6101 H            1    LIG   0.0000
  57 H            2.4086    -1.7479     4.8681 H            1    LIG   0.0000
  58 H            2.1825    -1.3571     2.1909 H            1    LIG   0.0000
  59 H           -2.3193     0.6303     0.4497 H            1    LIG   0.0000
  60 H           -2.7361     1.4380    -0.9070 H            1    LIG   0.0000
  61 H           -4.3664     1.9508     0.6145 H            1    LIG   0.0000
  62 H           -3.2739     2.2107     1.8000 H            1    LIG   0.0000
  63 H           -3.6690     3.9578    -0.4750 H            1    LIG   0.0000
  64 H           -4.3346     4.4164     2.3567 H            1    LIG   0.0000
  65 H           -5.7720     5.4127     3.7009 H            1    LIG   0.0000
  66 H           -7.3496     6.5142     5.4860 H            1    LIG   0.0000
  67 H           -7.9691     7.9292     4.9562 H            1    LIG   0.0000
  68 H           -8.8938     6.5833     4.9595 H            1    LIG   0.0000
  69 H           -1.9091     4.2223     1.8087 H            1    LIG   0.0000
  70 H           -2.0558     5.3319     0.6196 H            1    LIG   0.0000
  71 H           -0.9657     4.0074    -0.8873 H            1    LIG   0.0000
  72 H           -0.0813     3.8954     0.4810 H            1    LIG   0.0000
@<TRIPOS>BOND
   1        1        2 1
   2        2        3 1
   3        2        4 2
   4        4        5 1
   5        5        6 1
   6        6        7 1
   7        7        8 1
   8        8        9 1
   9        9       10 1
  10       10       11 1
  11       11       12 ar
  12       12       13 ar
  13       13       14 1
  14       13       15 ar
  15       15       16 ar
  16       16       17 1
  17       16       18 ar
  18       18       11 ar
  19        8       19 2
  20       19       20 1
  21       20       21 2
  22       21        7 1
  23       21       22 1
  24       22       23 1
  25       23       24 1
  26       24       25 1
  27       25       26 1
  28       26       27 am
  29       27       28 2
  30       27       29 1
  31       29       30 1
  32       30       31 2
  33       31       32 1
  34       31       33 1
  35       33       34 1
  36       34       29 2
  37       25       35 1
  38       35       36 1
  39       36       22 1
  40        1       37 1
  41        1       38 1
  42        1       39 1
  43        3       40 1
  44        3       41 1
  45        3       42 1
  46        4       43 1
  47        5       44 1
  48        5       45 1
  49        6       46 1
  50        6       47 1
  51        9       48 1
  52        9       49 1
  53       12       50 1
  54       14       51 1
  55       14       52 1
  56       14       53 1
  57       15       54 1
  58       17       55 1
  59       17       56 1
  60       17       57 1
  61       18       58 1
  62       23       59 1
  63       23       60 1
  64       24       61 1
  65       24       62 1
  66       25       63 1
  67       26       64 1
  68       30       65 1
  69       32       66 1
  70       32       67 1
  71       32       68 1
  72       35       69 1
  73       35       70 1
  74       36       71 1
  75       36       72 1

@<TRIPOS>MOLECULE

  72   75
SMALL
USER_CHARGES
@<TRIPOS>ATOM
   1 C1          -3.8371    -0.4339     2.6998 C.3          1    LIG   0.0000
   2 C2          -3.7352    -1.7895     2.0198 C.2          1    LIG   0.0000
   3 C3          -4.9266    -2.7334     2.0241 C.3          1    LIG   0.0000
   4 C4          -2.6291    -2.1416     1.4344 C.2          1    LIG   0.0000
   5 C5          -1.4377    -1.1977     1.4301 C.3          1    LIG   0.0000
   6 C6          -1.0627    -0.8618    -0.0041 C.3          1    LIG   0.0000
   7 N7           0.0889     0.0505    -0.0083 N.pl3        1    LIG   0.0000
   8 C8           1.4004    -0.3102    -0.0301 C.2          1    LIG   0.0000
   9 C9           1.9531    -1.7256    -0.0595 C.3          1    LIG   0.0000
  10 O10          0.8783    -2.6536    -0.0564 O.3          1    LIG   0.0000
  11 C11          0.4573    -3.0513     1.1630 C.ar         1    LIG   0.0000
  12 C12         -0.5914    -3.9594     1.2588 C.ar         1    LIG   0.0000
  13 C13         -1.0183    -4.3621     2.5201 C.ar         1    LIG   0.0000
  14 C14         -2.1632    -5.3539     2.6413 C.3          1    LIG   0.0000
  15 C15         -0.4156    -3.8727     3.6737 C.ar         1    LIG   0.0000
  16 C16          0.6313    -2.9660     3.5499 C.ar         1    LIG   0.0000
  17 C17          1.3019    -2.4206     4.8000 C.3          1    LIG   0.0000
  18 C18          1.0773    -2.5467     2.3012 C.ar         1    LIG   0.0000
  19 N19          2.0968     0.8006    -0.0246 N.2          1    LIG   0.0000
  20 N20          1.2808     1.8391     0.0060 N.2          1    LIG   0.0000
  21 C21          0.0426     1.4109     0.0126 C.2          1    LIG   0.0000
  22 N22         -1.1092     2.2046     0.0325 N.pl3        1    LIG   0.0000
  23 C23         -2.4206     1.5355     0.0369 C.3          1    LIG   0.0000
  24 C24         -3.4611     2.3202     0.8238 C.3          1    LIG   0.0000
  25 C25         -3.4515     3.8059     0.4892 C.3          1    LIG   0.0000
  26 N26         -4.4258     4.4807     1.3630 N.am         1    LIG   0.0000
  27 C27         -5.4571     5.1966     0.8145 C.2          1    LIG   0.0000
  28 O28         -5.5664     5.2737    -0.3780 O.2          1    LIG   0.0000
  29 C29         -6.4163     5.8609     1.6749 C.2          1    LIG   0.0000
  30 C30         -6.4189     5.8621     3.0848 C.2          1    LIG   0.0000
  31 C31         -7.5023     6.6141     3.4147 C.2          1    LIG   0.0000
  32 C32         -7.9686     6.9379     4.8247 C.3          1    LIG   0.0000
  33 O33         -8.0782     7.0070     2.3073 O.2          1    LIG   0.0000
  34 N34         -7.4454     6.5751     1.2930 N.2          1    LIG   0.0000
  35 C35         -2.0725     4.3547     0.8310 C.3          1    LIG   0.0000
  36 C36         -0.9568     3.6693     0.0538 C.3          1    LIG   0.0000
  37 H           -4.7492    -0.3273     3.0956 H            1    LIG   0.0000
  38 H           -3.1502    -0.3718     3.4239 H            1    LIG   0.0000
  39 H           -3.6789     0.2891     2.0273 H            1    LIG   0.0000
  40 H           -5.6875    -2.3075     2.5137 H            1    LIG   0.0000
  41 H           -5.2024    -2.9264     1.0825 H            1    LIG   0.0000
  42 H           -4.6737    -3.5873     2.4791 H            1    LIG   0.0000
  43 H           -2.5621    -3.0334     0.9871 H            1    LIG   0.0000
  44 H           -0.6623    -1.6375     1.8831 H            1    LIG   0.0000
  45 H           -1.6760    -0.3578     1.9177 H            1    LIG   0.0000
  46 H           -0.8243    -1.7016    -0.4918 H            1    LIG   0.0000
  47 H           -1.8381    -0.4219    -0.4571 H            1    LIG   0.0000
  48 H            2.5007    -1.8525    -0.8865 H            1    LIG   0.0000
  49 H            2.5261    -1.8765     0.7461 H            1    LIG   0.0000
  50 H           -1.0313    -4.3169     0.4350 H            1    LIG   0.0000
  51 H           -2.3448    -5.5369     3.6075 H            1    LIG   0.0000
  52 H           -2.9826    -4.9709     2.2148 H            1    LIG   0.0000
  53 H           -1.9156    -6.2066     2.1813 H            1    LIG   0.0000
  54 H           -0.7294    -4.1676     4.5762 H            1    LIG   0.0000
  55 H            0.8693    -2.8165     5.6101 H            1    LIG   0.0000
  56 H            2.2726    -2.6610     4.7895 H            1    LIG   0.0000
  57 H            1.2052    -1.4256     4.8231 H            1    LIG   0.0000
  58 H            1.8306    -1.8938     2.2230 H            1    LIG   0.0000
  59 H           -2.3193     0.6303     0.4497 H            1    LIG   0.0000
  60 H           -2.7361     1.4380    -0.9070 H            1    LIG   0.0000
  61 H           -4.3664     1.9508     0.6145 H            1    LIG   0.0000
  62 H           -3.2739     2.2107     1.8000 H            1    LIG   0.0000
  63 H           -3.6690     3.9578    -0.4750 H            1    LIG   0.0000
  64 H           -4.3346     4.4164     2.3567 H            1    LIG   0.0000
  65 H           -5.7720     5.4127     3.7009 H            1    LIG   0.0000
  66 H           -7.3496     6.5142     5.4860 H            1    LIG   0.0000
  67 H           -7.9691     7.9292     4.9562 H            1    LIG   0.0000
  68 H           -8.8938     6.5833     4.9595 H            1    LIG   0.0000
  69 H           -1.9091     4.2223     1.8087 H            1    LIG   0.0000
  70 H           -2.0558     5.3319     0.6196 H            1    LIG   0.0000
  71 H           -0.9657     4.0074    -0.8873 H            1    LIG   0.0000
  72 H           -0.0813     3.8954     0.4810 H            1    LIG   0.0000
@<TRIPOS>BOND
   1        1        2 1
   2        2        3 1
   3        2        4 2
   4        4        5 1
   5        5        6 1
   6        6        7 1
   7        7        8 1
   8        8        9 1
   9        9       10 1
  10       10       11 1
  11       11       12 ar
  12       12       13 ar
  13       13       14 1
  14       13       15 ar
  15       15       16 ar
  16       16       17 1
  17       16       18 ar
  18       18       11 ar
  19        8       19 2
  20       19       20 1
  21       20       21 2
  22       21        7 1
  23       21       22 1
  24       22       23 1
  25       23       24 1
  26       24       25 1
  27       25       26 1
  28       26       27 am
  29       27       28 2
  30       27       29 1
  31       29       30 1
  32       30       31 2
  33       31       32 1
  34       31       33 1
  35       33       34 1
  36       34       29 2
  37       25       35 1
  38       35       36 1
  39       36       22 1
  40        1       37 1
  41        1       38 1
  42        1       39 1
  43        3       40 1
  44        3       41 1
  45        3       42 1
  46        4       43 1
  47        5       44 1
  48        5       45 1
  49        6       46 1
  50        6       47 1
  51        9       48 1
  52        9       49 1
  53       12       50 1
  54       14       51 1
  55       14       52 1
  56       14       53 1
  57       15       54 1
  58       17       55 1
  59       17       56 1
  60       17       57 1
  61       18       58 1
  62       23       59 1
  63       23       60 1
  64       24       61 1
  65       24       62 1
  66       25       63 1
  67       26       64 1
  68       30       65 1
  69       32       66 1
  70       32       67 1
  71       32       68 1
  72       35       69 1
  73       35       70 1
  74       36       71 1
  75       36       72 1

@<TRIPOS>MOLECULE

  72   75
SMALL
USER_CHARGES
@<TRIPOS>ATOM
   1 C1          -3.8371    -0.4339     2.6998 C.3          1    LIG   0.0000
   2 C2          -3.7352    -1.7895     2.0198 C.2          1    LIG   0.0000
   3 C3          -4.9266    -2.7334     2.0241 C.3          1    LIG   0.0000
   4 C4          -2.6291    -2.1416     1.4344 C.2          1    LIG   0.0000
   5 C5          -1.4377    -1.1977     1.4301 C.3          1    LIG   0.0000
   6 C6          -1.0627    -0.8618    -0.0041 C.3          1    LIG   0.0000
   7 N7           0.0889     0.0505    -0.0083 N.pl3        1    LIG   0.0000
   8 C8           1.4004    -0.3102    -0.0301 C.2          1    LIG   0.0000
   9 C9           1.9531    -1.7256    -0.0595 C.3          1    LIG   0.0000
  10 O10          2.1460    -2.1861     1.2699 O.3          1    LIG   0.0000
  11 C11          2.6364    -3.4385     1.3857 C.ar         1    LIG   0.0000
  12 C12          2.8562    -3.9696     2.6519 C.ar         1    LIG   0.0000
  13 C13          3.3627    -5.2607     2.7602 C.ar         1    LIG   0.0000
  14 C14          3.6083    -5.8550     4.1371 C.3          1    LIG   0.0000
  15 C15          3.6489    -6.0184     1.6299 C.ar         1    LIG   0.0000
  16 C16          3.4195    -5.4638     0.3756 C.ar         1    LIG   0.0000
  17 C17          3.7264    -6.2774    -0.8708 C.3          1    LIG   0.0000
  18 C18          2.9142    -4.1754     0.2392 C.ar         1    LIG   0.0000
  19 N19          2.0968     0.8006    -0.0246 N.2          1    LIG   0.0000
  20 N20          1.2808     1.8391     0.0060 N.2          1    LIG   0.0000
  21 C21          0.0426     1.4109     0.0126 C.2          1    LIG   0.0000
  22 N22         -1.1092     2.2046     0.0325 N.pl3        1    LIG   0.0000
  23 C23         -2.4206     1.5355     0.0369 C.3          1    LIG   0.0000
  24 C24         -3.4611     2.3202     0.8238 C.3          1    LIG   0.0000
  25 C25         -3.4515     3.8059     0.4892 C.3          1    LIG   0.0000
  26 N26         -4.4258     4.4807     1.3630 N.am         1    LIG   0.0000
  27 C27         -5.4571     5.1966     0.8145 C.2          1    LIG   0.0000
  28 O28         -5.5664     5.2737    -0.3780 O.2          1    LIG   0.0000
  29 C29         -6.4163     5.8609     1.6749 C.2          1    LIG   0.0000
  30 C30         -6.4189     5.8621     3.0848 C.2          1    LIG   0.0000
  31 C31         -7.5023     6.6141     3.4147 C.2          1    LIG   0.0000
  32 C32         -7.9686     6.9379     4.8247 C.3          1    LIG   0.0000
  33 O33         -8.0782     7.0070     2.3073 O.2          1    LIG   0.0000
  34 N34         -7.4454     6.5751     1.2930 N.2          1    LIG   0.0000
  35 C35         -2.0725     4.3547     0.8310 C.3          1    LIG   0.0000
  36 C36         -0.9568     3.6693     0.0538 C.3          1    LIG   0.0000
  37 H           -4.7492    -0.3273     3.0956 H            1    LIG   0.0000
  38 H           -3.1502    -0.3718     3.4239 H            1    LIG   0.0000
  39 H           -3.6789     0.2891     2.0273 H            1    LIG   0.0000
  40 H           -5.6875    -2.3075     2.5137 H            1    LIG   0.0000
  41 H           -5.2024    -2.9264     1.0825 H            1    LIG   0.0000
  42 H           -4.6737    -3.5873     2.4791 H            1    LIG   0.0000
  43 H           -2.5621    -3.0334     0.9871 H            1    LIG   0.0000
  44 H           -0.6623    -1.6375     1.8831 H            1    LIG   0.0000
  45 H           -1.6760    -0.3578     1.9177 H            1    LIG   0.0000
  46 H           -0.8243    -1.7016    -0.4918 H            1    LIG   0.0000
  47 H           -1.8381    -0.4219    -0.4571 H            1    LIG   0.0000
  48 H            1.3065    -2.3263    -0.5298 H            1    LIG   0.0000
  49 H            2.8275    -1.7320    -0.5446 H            1    LIG   0.0000
  50 H            2.6537    -3.4324     3.4707 H            1    LIG   0.0000
  51 H            3.9703    -6.7821     4.0402 H            1    LIG   0.0000
  52 H            4.2684    -5.2894     4.6314 H            1    LIG   0.0000
  53 H            2.7478    -5.8846     4.6457 H            1    LIG   0.0000
  54 H            4.0131    -6.9455     1.7175 H            1    LIG   0.0000
  55 H            4.0797    -7.1743    -0.6048 H            1    LIG   0.0000
  56 H            2.8904    -6.3941    -1.4070 H            1    LIG   0.0000
  57 H            4.4111    -5.7992    -1.4209 H            1    LIG   0.0000
  58 H            2.7533    -3.7854    -0.6675 H            1    LIG   0.0000
  59 H           -2.3193     0.6303     0.4497 H            1    LIG   0.0000
  60 H           -2.7361     1.4380    -0.9070 H            1    LIG   0.0000
  61 H           -4.3664     1.9508     0.6145 H            1    LIG   0.0000
  62 H           -3.2739     2.2107     1.8000 H            1    LIG   0.0000
  63 H           -3.6690     3.9578    -0.4750 H            1    LIG   0.0000
  64 H           -4.3346     4.4164     2.3567 H            1    LIG   0.0000
  65 H           -5.7720     5.4127     3.7009 H            1    LIG   0.0000
  66 H           -7.3496     6.5142     5.4860 H            1    LIG   0.0000
  67 H           -7.9691     7.9292     4.9562 H            1    LIG   0.0000
  68 H           -8.8938     6.5833     4.9595 H            1    LIG   0.0000
  69 H           -1.9091     4.2223     1.8087 H            1    LIG   0.0000
  70 H           -2.0558     5.3319     0.6196 H            1    LIG   0.0000
  71 H           -0.9657     4.0074    -0.8873 H            1    LIG   0.0000
  72 H           -0.0813     3.8954     0.4810 H            1    LIG   0.0000
@<TRIPOS>BOND
   1        1        2 1
   2        2        3 1
   3        2        4 2
   4        4        5 1
   5        5        6 1
   6        6        7 1
   7        7        8 1
   8        8        9 1
   9        9       10 1
  10       10       11 1
  11       11       12 ar
  12       12       13 ar
  13       13       14 1
  14       13       15 ar
  15       15       16 ar
  16       16       17 1
  17       16       18 ar
  18       18       11 ar
  19        8       19 2
  20       19       20 1
  21       20       21 2
  22       21        7 1
  23       21       22 1
  24       22       23 1
  25       23       24 1
  26       24       25 1
  27       25       26 1
  28       26       27 am
  29       27       28 2
  30       27       29 1
  31       29       30 1
  32       30       31 2
  33       31       32 1
  34       31       33 1
  35       33       34 1
  36       34       29 2
  37       25       35 1
  38       35       36 1
  39       36       22 1
  40        1       37 1
  41        1       38 1
  42        1       39 1
  43        3       40 1
  44        3       41 1
  45        3       42 1
  46        4       43 1
  47        5       44 1
  48        5       45 1
  49        6       46 1
  50        6       47 1
  51        9       48 1
  52        9       49 1
  53       12       50 1
  54       14       51 1
  55       14       52 1
  56       14       53 1
  57       15       54 1
  58       17       55 1
  59       17       56 1
  60       17       57 1
  61       18       58 1
  62       23       59 1
  63       23       60 1
  64       24       61 1
  65       24       62 1
  66       25       63 1
  67       26       64 1
  68       30       65 1
  69       32       66 1
  70       32       67 1
  71       32       68 1
  72       35       69 1
  73       35       70 1
  74       36       71 1
  75       36       72 1

@<TRIPOS>MOLECULE

  72   75
SMALL
USER_CHARGES
@<TRIPOS>ATOM
   1 C1          -0.1560    -3.7033     1.2528 C.3          1    LIG   0.0000
   2 C2          -1.6696    -3.6306     1.3709 C.2          1    LIG   0.0000
   3 C3          -2.4924    -4.9084     1.3934 C.3          1    LIG   0.0000
   4 C4          -2.2605    -2.4755     1.4526 C.2          1    LIG   0.0000
   5 C5          -1.4377    -1.1977     1.4301 C.3          1    LIG   0.0000
   6 C6          -1.0627    -0.8618    -0.0041 C.3          1    LIG   0.0000
   7 N7           0.0889     0.0505    -0.0083 N.pl3        1    LIG   0.0000
   8 C8           1.4004    -0.3102    -0.0301 C.2          1    LIG   0.0000
   9 C9           1.9531    -1.7256    -0.0595 C.3          1    LIG   0.0000
  10 O10          2.1460    -2.1861     1.2699 O.3          1    LIG   0.0000
  11 C11          3.2711    -1.7532     1.8774 C.ar         1    LIG   0.0000
  12 C12          3.5393    -2.1558     3.1811 C.ar         1    LIG   0.0000
  13 C13          4.7010    -1.7033     3.7984 C.ar         1    LIG   0.0000
  14 C14          5.0081    -2.1345     5.2228 C.3          1    LIG   0.0000
  15 C15          5.5875    -0.8623     3.1347 C.ar         1    LIG   0.0000
  16 C16          5.2958    -0.4751     1.8315 C.ar         1    LIG   0.0000
  17 C17          6.2534     0.4438     1.0908 C.3          1    LIG   0.0000
  18 C18          4.1414    -0.9126     1.1914 C.ar         1    LIG   0.0000
  19 N19          2.0968     0.8006    -0.0246 N.2          1    LIG   0.0000
  20 N20          1.2808     1.8391     0.0060 N.2          1    LIG   0.0000
  21 C21          0.0426     1.4109     0.0126 C.2          1    LIG   0.0000
  22 N22         -1.1092     2.2046     0.0325 N.pl3        1    LIG   0.0000
  23 C23         -2.4206     1.5355     0.0369 C.3          1    LIG   0.0000
  24 C24         -3.4611     2.3202     0.8238 C.3          1    LIG   0.0000
  25 C25         -3.4515     3.8059     0.4892 C.3          1    LIG   0.0000
  26 N26         -4.4258     4.4807     1.3630 N.am         1    LIG   0.0000
  27 C27         -5.4571     5.1966     0.8145 C.2          1    LIG   0.0000
  28 O28         -5.5664     5.2737    -0.3780 O.2          1    LIG   0.0000
  29 C29         -6.4163     5.8609     1.6749 C.2          1    LIG   0.0000
  30 C30         -6.4189     5.8621     3.0848 C.2          1    LIG   0.0000
  31 C31         -7.5023     6.6141     3.4147 C.2          1    LIG   0.0000
  32 C32         -7.9686     6.9379     4.8247 C.3          1    LIG   0.0000
  33 O33         -8.0782     7.0070     2.3073 O.2          1    LIG   0.0000
  34 N34         -7.4454     6.5751     1.2930 N.2          1    LIG   0.0000
  35 C35         -2.0725     4.3547     0.8310 C.3          1    LIG   0.0000
  36 C36         -0.9568     3.6693     0.0538 C.3          1    LIG   0.0000
  37 H            0.1287    -4.6605     1.2007 H            1    LIG   0.0000
  38 H            0.1374    -3.2229     0.4262 H            1    LIG   0.0000
  39 H            0.2619    -3.2743     2.0537 H            1    LIG   0.0000
  40 H           -1.8834    -5.6984     1.3218 H            1    LIG   0.0000
  41 H           -3.0053    -4.9596     2.2503 H            1    LIG   0.0000
  42 H           -3.1298    -4.9081     0.6229 H            1    LIG   0.0000
  43 H           -3.2563    -2.4277     1.5303 H            1    LIG   0.0000
  44 H           -0.6063    -1.3270     1.9705 H            1    LIG   0.0000
  45 H           -1.9745    -0.4487     1.8184 H            1    LIG   0.0000
  46 H           -0.8243    -1.7016    -0.4918 H            1    LIG   0.0000
  47 H           -1.8381    -0.4219    -0.4571 H            1    LIG   0.0000
  48 H            1.3065    -2.3263    -0.5298 H            1    LIG   0.0000
  49 H            2.8275    -1.7320    -0.5446 H            1    LIG   0.0000
  50 H            2.9078    -2.7603     3.6666 H            1    LIG   0.0000
  51 H            5.8722    -1.7254     5.5159 H            1    LIG   0.0000
  52 H            4.2729    -1.8307     5.8288 H            1    LIG   0.0000
  53 H            5.0812    -3.1311     5.2610 H            1    LIG   0.0000
  54 H            6.4199    -0.5417     3.5867 H            1    LIG   0.0000
  55 H            7.0277     0.6659     1.6834 H            1    LIG   0.0000
  56 H            6.5853    -0.0152     0.2667 H            1    LIG   0.0000
  57 H            5.7773     1.2851     0.8350 H            1    LIG   0.0000
  58 H            3.9404    -0.6279     0.2541 H            1    LIG   0.0000
  59 H           -2.3193     0.6303     0.4497 H            1    LIG   0.0000
  60 H           -2.7361     1.4380    -0.9070 H            1    LIG   0.0000
  61 H           -4.3664     1.9508     0.6145 H            1    LIG   0.0000
  62 H           -3.2739     2.2107     1.8000 H            1    LIG   0.0000
  63 H           -3.6690     3.9578    -0.4750 H            1    LIG   0.0000
  64 H           -4.3346     4.4164     2.3567 H            1    LIG   0.0000
  65 H           -5.7720     5.4127     3.7009 H            1    LIG   0.0000
  66 H           -7.3496     6.5142     5.4860 H            1    LIG   0.0000
  67 H           -7.9691     7.9292     4.9562 H            1    LIG   0.0000
  68 H           -8.8938     6.5833     4.9595 H            1    LIG   0.0000
  69 H           -1.9091     4.2223     1.8087 H            1    LIG   0.0000
  70 H           -2.0558     5.3319     0.6196 H            1    LIG   0.0000
  71 H           -0.9657     4.0074    -0.8873 H            1    LIG   0.0000
  72 H           -0.0813     3.8954     0.4810 H            1    LIG   0.0000
@<TRIPOS>BOND
   1        1        2 1
   2        2        3 1
   3        2        4 2
   4        4        5 1
   5        5        6 1
   6        6        7 1
   7        7        8 1
   8        8        9 1
   9        9       10 1
  10       10       11 1
  11       11       12 ar
  12       12       13 ar
  13       13       14 1
  14       13       15 ar
  15       15       16 ar
  16       16       17 1
  17       16       18 ar
  18       18       11 ar
  19        8       19 2
  20       19       20 1
  21       20       21 2
  22       21        7 1
  23       21       22 1
  24       22       23 1
  25       23       24 1
  26       24       25 1
  27       25       26 1
  28       26       27 am
  29       27       28 2
  30       27       29 1
  31       29       30 1
  32       30       31 2
  33       31       32 1
  34       31       33 1
  35       33       34 1
  36       34       29 2
  37       25       35 1
  38       35       36 1
  39       36       22 1
  40        1       37 1
  41        1       38 1
  42        1       39 1
  43        3       40 1
  44        3       41 1
  45        3       42 1
  46        4       43 1
  47        5       44 1
  48        5       45 1
  49        6       46 1
  50        6       47 1
  51        9       48 1
  52        9       49 1
  53       12       50 1
  54       14       51 1
  55       14       52 1
  56       14       53 1
  57       15       54 1
  58       17       55 1
  59       17       56 1
  60       17       57 1
  61       18       58 1
  62       23       59 1
  63       23       60 1
  64       24       61 1
  65       24       62 1
  66       25       63 1
  67       26       64 1
  68       30       65 1
  69       32       66 1
  70       32       67 1
  71       32       68 1
  72       35       69 1
  73       35       70 1
  74       36       71 1
  75       36       72 1

@<TRIPOS>MOLECULE

  72   75
SMALL
USER_CHARGES
@<TRIPOS>ATOM
   1 C1          -2.5146    -2.5671    -0.7875 C.3          1    LIG   0.0000
   2 C2          -3.3655    -2.3386     0.4511 C.2          1    LIG   0.0000
   3 C3          -4.7968    -2.8482     0.4944 C.3          1    LIG   0.0000
   4 C4          -2.8691    -1.7073     1.4734 C.2          1    LIG   0.0000
   5 C5          -1.4377    -1.1977     1.4301 C.3          1    LIG   0.0000
   6 C6          -1.0627    -0.8618    -0.0041 C.3          1    LIG   0.0000
   7 N7           0.0889     0.0505    -0.0083 N.pl3        1    LIG   0.0000
   8 C8           1.4004    -0.3102    -0.0301 C.2          1    LIG   0.0000
   9 C9           1.9531    -1.7256    -0.0595 C.3          1    LIG   0.0000
  10 O10          0.8783    -2.6536    -0.0564 O.3          1    LIG   0.0000
  11 C11          0.2816    -2.8557    -1.2504 C.ar         1    LIG   0.0000
  12 C12         -0.4690    -4.0090    -1.4502 C.ar         1    LIG   0.0000
  13 C13         -1.0791    -4.2082    -2.6845 C.ar         1    LIG   0.0000
  14 C14         -1.9026    -5.4637    -2.9182 C.3          1    LIG   0.0000
  15 C15         -0.9487    -3.2779    -3.7097 C.ar         1    LIG   0.0000
  16 C16         -0.1929    -2.1328    -3.4837 C.ar         1    LIG   0.0000
  17 C17         -0.0395    -1.1052    -4.5929 C.3          1    LIG   0.0000
  18 C18          0.4277    -1.9095    -2.2593 C.ar         1    LIG   0.0000
  19 N19          2.0968     0.8006    -0.0246 N.2          1    LIG   0.0000
  20 N20          1.2808     1.8391     0.0060 N.2          1    LIG   0.0000
  21 C21          0.0426     1.4109     0.0126 C.2          1    LIG   0.0000
  22 N22         -1.1092     2.2046     0.0325 N.pl3        1    LIG   0.0000
  23 C23         -2.4206     1.5355     0.0369 C.3          1    LIG   0.0000
  24 C24         -3.4611     2.3202     0.8238 C.3          1    LIG   0.0000
  25 C25         -3.4515     3.8059     0.4892 C.3          1    LIG   0.0000
  26 N26         -4.4258     4.4807     1.3630 N.am         1    LIG   0.0000
  27 C27         -5.4571     5.1966     0.8145 C.2          1    LIG   0.0000
  28 O28         -5.5664     5.2737    -0.3780 O.2          1    LIG   0.0000
  29 C29         -6.4163     5.8609     1.6749 C.2          1    LIG   0.0000
  30 C30         -6.4189     5.8621     3.0848 C.2          1    LIG   0.0000
  31 C31         -7.5023     6.6141     3.4147 C.2          1    LIG   0.0000
  32 C32         -7.9686     6.9379     4.8247 C.3          1    LIG   0.0000
  33 O33         -8.0782     7.0070     2.3073 O.2          1    LIG   0.0000
  34 N34         -7.4454     6.5751     1.2930 N.2          1    LIG   0.0000
  35 C35         -2.0725     4.3547     0.8310 C.3          1    LIG   0.0000
  36 C36         -0.9568     3.6693     0.0538 C.3          1    LIG   0.0000
  37 H           -3.0484    -3.0640    -1.4716 H            1    LIG   0.0000
  38 H           -2.2293    -1.6854    -1.1632 H            1    LIG   0.0000
  39 H           -1.7061    -3.1022    -0.5424 H            1    LIG   0.0000
  40 H           -5.0139    -3.3061    -0.3676 H            1    LIG   0.0000
  41 H           -4.8975    -3.4953     1.2502 H            1    LIG   0.0000
  42 H           -5.4208    -2.0785     0.6293 H            1    LIG   0.0000
  43 H           -3.4289    -1.5570     2.2883 H            1    LIG   0.0000
  44 H           -0.8217    -1.9039     1.7790 H            1    LIG   0.0000
  45 H           -1.3587    -0.3771     1.9962 H            1    LIG   0.0000
  46 H           -0.8243    -1.7016    -0.4918 H            1    LIG   0.0000
  47 H           -1.8381    -0.4219    -0.4571 H            1    LIG   0.0000
  48 H            2.5007    -1.8525    -0.8865 H            1    LIG   0.0000
  49 H            2.5261    -1.8765     0.7461 H            1    LIG   0.0000
  50 H           -0.5685    -4.6840    -0.7190 H            1    LIG   0.0000
  51 H           -2.2693    -5.4534    -3.8485 H            1    LIG   0.0000
  52 H           -1.3233    -6.2697    -2.7972 H            1    LIG   0.0000
  53 H           -2.6573    -5.4941    -2.2628 H            1    LIG   0.0000
  54 H           -1.3905    -3.4297    -4.5939 H            1    LIG   0.0000
  55 H           -0.5415    -1.4107    -5.4020 H            1    LIG   0.0000
  56 H           -0.4050    -0.2264    -4.2860 H            1    LIG   0.0000
  57 H            0.9288    -1.0024    -4.8204 H            1    LIG   0.0000
  58 H            0.9696    -1.0830    -2.1070 H            1    LIG   0.0000
  59 H           -2.3193     0.6303     0.4497 H            1    LIG   0.0000
  60 H           -2.7361     1.4380    -0.9070 H            1    LIG   0.0000
  61 H           -4.3664     1.9508     0.6145 H            1    LIG   0.0000
  62 H           -3.2739     2.2107     1.8000 H            1    LIG   0.0000
  63 H           -3.6690     3.9578    -0.4750 H            1    LIG   0.0000
  64 H           -4.3346     4.4164     2.3567 H            1    LIG   0.0000
  65 H           -5.7720     5.4127     3.7009 H            1    LIG   0.0000
  66 H           -7.3496     6.5142     5.4860 H            1    LIG   0.0000
  67 H           -7.9691     7.9292     4.9562 H            1    LIG   0.0000
  68 H           -8.8938     6.5833     4.9595 H            1    LIG   0.0000
  69 H           -1.9091     4.2223     1.8087 H            1    LIG   0.0000
  70 H           -2.0558     5.3319     0.6196 H            1    LIG   0.0000
  71 H           -0.9657     4.0074    -0.8873 H            1    LIG   0.0000
  72 H           -0.0813     3.8954     0.4810 H            1    LIG   0.0000
@<TRIPOS>BOND
   1        1        2 1
   2        2        3 1
   3        2        4 2
   4        4        5 1
   5        5        6 1
   6        6        7 1
   7        7        8 1
   8        8        9 1
   9        9       10 1
  10       10       11 1
  11       11       12 ar
  12       12       13 ar
  13       13       14 1
  14       13       15 ar
  15       15       16 ar
  16       16       17 1
  17       16       18 ar
  18       18       11 ar
  19        8       19 2
  20       19       20 1
  21       20       21 2
  22       21        7 1
  23       21       22 1
  24       22       23 1
  25       23       24 1
  26       24       25 1
  27       25       26 1
  28       26       27 am
  29       27       28 2
  30       27       29 1
  31       29       30 1
  32       30       31 2
  33       31       32 1
  34       31       33 1
  35       33       34 1
  36       34       29 2
  37       25       35 1
  38       35       36 1
  39       36       22 1
  40        1       37 1
  41        1       38 1
  42        1       39 1
  43        3       40 1
  44        3       41 1
  45        3       42 1
  46        4       43 1
  47        5       44 1
  48        5       45 1
  49        6       46 1
  50        6       47 1
  51        9       48 1
  52        9       49 1
  53       12       50 1
  54       14       51 1
  55       14       52 1
  56       14       53 1
  57       15       54 1
  58       17       55 1
  59       17       56 1
  60       17       57 1
  61       18       58 1
  62       23       59 1
  63       23       60 1
  64       24       61 1
  65       24       62 1
  66       25       63 1
  67       26       64 1
  68       30       65 1
  69       32       66 1
  70       32       67 1
  71       32       68 1
  72       35       69 1
  73       35       70 1
  74       36       71 1
  75       36       72 1

@<TRIPOS>MOLECULE

  72   75
SMALL
USER_CHARGES
@<TRIPOS>ATOM
   1 C1          -2.5146    -2.5671    -0.7875 C.3          1    LIG   0.0000
   2 C2          -3.3655    -2.3386     0.4511 C.2          1    LIG   0.0000
   3 C3          -4.7968    -2.8482     0.4944 C.3          1    LIG   0.0000
   4 C4          -2.8691    -1.7073     1.4734 C.2          1    LIG   0.0000
   5 C5          -1.4377    -1.1977     1.4301 C.3          1    LIG   0.0000
   6 C6          -1.0627    -0.8618    -0.0041 C.3          1    LIG   0.0000
   7 N7           0.0889     0.0505    -0.0083 N.pl3        1    LIG   0.0000
   8 C8           1.4004    -0.3102    -0.0301 C.2          1    LIG   0.0000
   9 C9           1.9531    -1.7256    -0.0595 C.3          1    LIG   0.0000
  10 O10          2.1460    -2.1861     1.2699 O.3          1    LIG   0.0000
  11 C11          1.1788    -2.9960     1.7505 C.ar         1    LIG   0.0000
  12 C12          1.0465    -3.1576     3.1252 C.ar         1    LIG   0.0000
  13 C13          0.0472    -3.9951     3.6102 C.ar         1    LIG   0.0000
  14 C14         -0.1100    -4.1820     5.1100 C.3          1    LIG   0.0000
  15 C15         -0.8117    -4.6654     2.7461 C.ar         1    LIG   0.0000
  16 C16         -0.6582    -4.4861     1.3759 C.ar         1    LIG   0.0000
  17 C17         -1.5880    -5.2108     0.4166 C.3          1    LIG   0.0000
  18 C18          0.3327    -3.6549     0.8647 C.ar         1    LIG   0.0000
  19 N19          2.0968     0.8006    -0.0246 N.2          1    LIG   0.0000
  20 N20          1.2808     1.8391     0.0060 N.2          1    LIG   0.0000
  21 C21          0.0426     1.4109     0.0126 C.2          1    LIG   0.0000
  22 N22         -1.1092     2.2046     0.0325 N.pl3        1    LIG   0.0000
  23 C23         -2.4206     1.5355     0.0369 C.3          1    LIG   0.0000
  24 C24         -3.4611     2.3202     0.8238 C.3          1    LIG   0.0000
  25 C25         -3.4515     3.8059     0.4892 C.3          1    LIG   0.0000
  26 N26         -4.4258     4.4807     1.3630 N.am         1    LIG   0.0000
  27 C27         -5.4571     5.1966     0.8145 C.2          1    LIG   0.0000
  28 O28         -5.5664     5.2737    -0.3780 O.2          1    LIG   0.0000
  29 C29         -6.4163     5.8609     1.6749 C.2          1    LIG   0.0000
  30 C30         -6.4189     5.8621     3.0848 C.2          1    LIG   0.0000
  31 C31         -7.5023     6.6141     3.4147 C.2          1    LIG   0.0000
  32 C32         -7.9686     6.9379     4.8247 C.3          1    LIG   0.0000
  33 O33         -8.0782     7.0070     2.3073 O.2          1    LIG   0.0000
  34 N34         -7.4454     6.5751     1.2930 N.2          1    LIG   0.0000
  35 C35         -2.0725     4.3547     0.8310 C.3          1    LIG   0.0000
  36 C36         -0.9568     3.6693     0.0538 C.3          1    LIG   0.0000
  37 H           -3.0484    -3.0640    -1.4716 H            1    LIG   0.0000
  38 H           -2.2293    -1.6854    -1.1632 H            1    LIG   0.0000
  39 H           -1.7061    -3.1022    -0.5424 H            1    LIG   0.0000
  40 H           -5.0139    -3.3061    -0.3676 H            1    LIG   0.0000
  41 H           -4.8975    -3.4953     1.2502 H            1    LIG   0.0000
  42 H           -5.4208    -2.0785     0.6293 H            1    LIG   0.0000
  43 H           -3.4289    -1.5570     2.2883 H            1    LIG   0.0000
  44 H           -0.8217    -1.9039     1.7790 H            1    LIG   0.0000
  45 H           -1.3587    -0.3771     1.9962 H            1    LIG   0.0000
  46 H           -0.8243    -1.7016    -0.4918 H            1    LIG   0.0000
  47 H           -1.8381    -0.4219    -0.4571 H            1    LIG   0.0000
  48 H            1.3065    -2.3263    -0.5298 H            1    LIG   0.0000
  49 H            2.8275    -1.7320    -0.5446 H            1    LIG   0.0000
  50 H            1.6595    -2.6799     3.7546 H            1    LIG   0.0000
  51 H           -0.8675    -4.8095     5.2902 H            1    LIG   0.0000
  52 H            0.7342    -4.5610     5.4890 H            1    LIG   0.0000
  53 H           -0.3002    -3.2984     5.5379 H            1    LIG   0.0000
  54 H           -1.5269    -5.2658     3.1039 H            1    LIG   0.0000
  55 H           -2.2387    -5.7637     0.9369 H            1    LIG   0.0000
  56 H           -2.0856    -4.5413    -0.1350 H            1    LIG   0.0000
  57 H           -1.0514    -5.8041    -0.1834 H            1    LIG   0.0000
  58 H            0.4352    -3.5331    -0.1225 H            1    LIG   0.0000
  59 H           -2.3193     0.6303     0.4497 H            1    LIG   0.0000
  60 H           -2.7361     1.4380    -0.9070 H            1    LIG   0.0000
  61 H           -4.3664     1.9508     0.6145 H            1    LIG   0.0000
  62 H           -3.2739     2.2107     1.8000 H            1    LIG   0.0000
  63 H           -3.6690     3.9578    -0.4750 H            1    LIG   0.0000
  64 H           -4.3346     4.4164     2.3567 H            1    LIG   0.0000
  65 H           -5.7720     5.4127     3.7009 H            1    LIG   0.0000
  66 H           -7.3496     6.5142     5.4860 H            1    LIG   0.0000
  67 H           -7.9691     7.9292     4.9562 H            1    LIG   0.0000
  68 H           -8.8938     6.5833     4.9595 H            1    LIG   0.0000
  69 H           -1.9091     4.2223     1.8087 H            1    LIG   0.0000
  70 H           -2.0558     5.3319     0.6196 H            1    LIG   0.0000
  71 H           -0.9657     4.0074    -0.8873 H            1    LIG   0.0000
  72 H           -0.0813     3.8954     0.4810 H            1    LIG   0.0000
@<TRIPOS>BOND
   1        1        2 1
   2        2        3 1
   3        2        4 2
   4        4        5 1
   5        5        6 1
   6        6        7 1
   7        7        8 1
   8        8        9 1
   9        9       10 1
  10       10       11 1
  11       11       12 ar
  12       12       13 ar
  13       13       14 1
  14       13       15 ar
  15       15       16 ar
  16       16       17 1
  17       16       18 ar
  18       18       11 ar
  19        8       19 2
  20       19       20 1
  21       20       21 2
  22       21        7 1
  23       21       22 1
  24       22       23 1
  25       23       24 1
  26       24       25 1
  27       25       26 1
  28       26       27 am
  29       27       28 2
  30       27       29 1
  31       29       30 1
  32       30       31 2
  33       31       32 1
  34       31       33 1
  35       33       34 1
  36       34       29 2
  37       25       35 1
  38       35       36 1
  39       36       22 1
  40        1       37 1
  41        1       38 1
  42        1       39 1
  43        3       40 1
  44        3       41 1
  45        3       42 1
  46        4       43 1
  47        5       44 1
  48        5       45 1
  49        6       46 1
  50        6       47 1
  51        9       48 1
  52        9       49 1
  53       12       50 1
  54       14       51 1
  55       14       52 1
  56       14       53 1
  57       15       54 1
  58       17       55 1
  59       17       56 1
  60       17       57 1
  61       18       58 1
  62       23       59 1
  63       23       60 1
  64       24       61 1
  65       24       62 1
  66       25       63 1
  67       26       64 1
  68       30       65 1
  69       32       66 1
  70       32       67 1
  71       32       68 1
  72       35       69 1
  73       35       70 1
  74       36       71 1
  75       36       72 1

@<TRIPOS>MOLECULE

  72   75
SMALL
USER_CHARGES
@<TRIPOS>ATOM
   1 C1          -1.0563    -3.9518     0.9591 C.3          1    LIG   0.0000
   2 C2          -2.4533    -3.4112     1.2173 C.2          1    LIG   0.0000
   3 C3          -3.6447    -4.3551     1.2217 C.3          1    LIG   0.0000
   4 C4          -2.6291    -2.1416     1.4344 C.2          1    LIG   0.0000
   5 C5          -1.4377    -1.1977     1.4301 C.3          1    LIG   0.0000
   6 C6          -1.0627    -0.8618    -0.0041 C.3          1    LIG   0.0000
   7 N7           0.0889     0.0505    -0.0083 N.pl3        1    LIG   0.0000
   8 C8           1.4004    -0.3102    -0.0301 C.2          1    LIG   0.0000
   9 C9           1.9531    -1.7256    -0.0595 C.3          1    LIG   0.0000
  10 O10          3.3722    -1.6793    -0.0808 O.3          1    LIG   0.0000
  11 C11          3.9965    -2.8107     0.3097 C.ar         1    LIG   0.0000
  12 C12          5.3864    -2.8531     0.3193 C.ar         1    LIG   0.0000
  13 C13          6.0200    -4.0241     0.7226 C.ar         1    LIG   0.0000
  14 C14          7.5383    -4.0861     0.7385 C.3          1    LIG   0.0000
  15 C15          5.2882    -5.1406     1.1118 C.ar         1    LIG   0.0000
  16 C16          3.8996    -5.0716     1.0934 C.ar         1    LIG   0.0000
  17 C17          3.0836    -6.2823     1.5156 C.3          1    LIG   0.0000
  18 C18          3.2412    -3.9135     0.6943 C.ar         1    LIG   0.0000
  19 N19          2.0968     0.8006    -0.0246 N.2          1    LIG   0.0000
  20 N20          1.2808     1.8391     0.0060 N.2          1    LIG   0.0000
  21 C21          0.0426     1.4109     0.0126 C.2          1    LIG   0.0000
  22 N22         -1.1092     2.2046     0.0325 N.pl3        1    LIG   0.0000
  23 C23         -2.4206     1.5355     0.0369 C.3          1    LIG   0.0000
  24 C24         -3.4611     2.3202     0.8238 C.3          1    LIG   0.0000
  25 C25         -3.4515     3.8059     0.4892 C.3          1    LIG   0.0000
  26 N26         -4.4258     4.4807     1.3630 N.am         1    LIG   0.0000
  27 C27         -5.4571     5.1966     0.8145 C.2          1    LIG   0.0000
  28 O28         -5.5664     5.2737    -0.3780 O.2          1    LIG   0.0000
  29 C29         -6.4163     5.8609     1.6749 C.2          1    LIG   0.0000
  30 C30         -7.5239     6.6287     1.2607 C.2          1    LIG   0.0000
  31 C31         -8.1044     7.0291     2.4230 C.2          1    LIG   0.0000
  32 C32         -9.3501     7.8909     2.5485 C.3          1    LIG   0.0000
  33 O33         -7.4013     6.5480     3.4164 O.2          1    LIG   0.0000
  34 N34         -6.4215     5.8631     2.9844 N.2          1    LIG   0.0000
  35 C35         -2.0725     4.3547     0.8310 C.3          1    LIG   0.0000
  36 C36         -0.9568     3.6693     0.0538 C.3          1    LIG   0.0000
  37 H           -1.1030    -4.9400     0.8132 H            1    LIG   0.0000
  38 H           -0.6738    -3.5125     0.1463 H            1    LIG   0.0000
  39 H           -0.4730    -3.7586     1.7481 H            1    LIG   0.0000
  40 H           -3.3320    -5.2873     1.0393 H            1    LIG   0.0000
  41 H           -4.0925    -4.3226     2.1152 H            1    LIG   0.0000
  42 H           -4.2933    -4.0765     0.5134 H            1    LIG   0.0000
  43 H           -3.5481    -1.7859     1.6043 H            1    LIG   0.0000
  44 H           -0.6623    -1.6375     1.8831 H            1    LIG   0.0000
  45 H           -1.6760    -0.3578     1.9177 H            1    LIG   0.0000
  46 H           -0.8243    -1.7016    -0.4918 H            1    LIG   0.0000
  47 H           -1.8381    -0.4219    -0.4571 H            1    LIG   0.0000
  48 H            1.6479    -2.2196     0.7547 H            1    LIG   0.0000
  49 H            1.6226    -2.1956    -0.8779 H            1    LIG   0.0000
  50 H            5.9214    -2.0554     0.0411 H            1    LIG   0.0000
  51 H            7.8318    -4.9897     1.0504 H            1    LIG   0.0000
  52 H            7.8883    -3.9218    -0.1837 H            1    LIG   0.0000
  53 H            7.8939    -3.3874     1.3593 H            1    LIG   0.0000
  54 H            5.7524    -5.9783     1.3998 H            1    LIG   0.0000
  55 H            3.7000    -7.0270     1.7715 H            1    LIG   0.0000
  56 H            2.5095    -6.0410     2.2980 H            1    LIG   0.0000
  57 H            2.5044    -6.5755     0.7549 H            1    LIG   0.0000
  58 H            2.2420    -3.8742     0.6841 H            1    LIG   0.0000
  59 H           -2.3193     0.6303     0.4497 H            1    LIG   0.0000
  60 H           -2.7361     1.4380    -0.9070 H            1    LIG   0.0000
  61 H           -4.3664     1.9508     0.6145 H            1    LIG   0.0000
  62 H           -3.2739     2.2107     1.8000 H            1    LIG   0.0000
  63 H           -3.6690     3.9578    -0.4750 H            1    LIG   0.0000
  64 H           -4.3346     4.4164     2.3567 H            1    LIG   0.0000
  65 H           -7.8157     6.8322     0.3261 H            1    LIG   0.0000
  66 H           -9.6895     8.1210     1.6364 H            1    LIG   0.0000
  67 H          -10.0545     7.3878     3.0492 H            1    LIG   0.0000
  68 H           -9.1258     8.7310     3.0424 H            1    LIG   0.0000
  69 H           -1.9091     4.2223     1.8087 H            1    LIG   0.0000
  70 H           -2.0558     5.3319     0.6196 H            1    LIG   0.0000
  71 H           -0.9657     4.0074    -0.8873 H            1    LIG   0.0000
  72 H           -0.0813     3.8954     0.4810 H            1    LIG   0.0000
@<TRIPOS>BOND
   1        1        2 1
   2        2        3 1
   3        2        4 2
   4        4        5 1
   5        5        6 1
   6        6        7 1
   7        7        8 1
   8        8        9 1
   9        9       10 1
  10       10       11 1
  11       11       12 ar
  12       12       13 ar
  13       13       14 1
  14       13       15 ar
  15       15       16 ar
  16       16       17 1
  17       16       18 ar
  18       18       11 ar
  19        8       19 2
  20       19       20 1
  21       20       21 2
  22       21        7 1
  23       21       22 1
  24       22       23 1
  25       23       24 1
  26       24       25 1
  27       25       26 1
  28       26       27 am
  29       27       28 2
  30       27       29 1
  31       29       30 1
  32       30       31 2
  33       31       32 1
  34       31       33 1
  35       33       34 1
  36       34       29 2
  37       25       35 1
  38       35       36 1
  39       36       22 1
  40        1       37 1
  41        1       38 1
  42        1       39 1
  43        3       40 1
  44        3       41 1
  45        3       42 1
  46        4       43 1
  47        5       44 1
  48        5       45 1
  49        6       46 1
  50        6       47 1
  51        9       48 1
  52        9       49 1
  53       12       50 1
  54       14       51 1
  55       14       52 1
  56       14       53 1
  57       15       54 1
  58       17       55 1
  59       17       56 1
  60       17       57 1
  61       18       58 1
  62       23       59 1
  63       23       60 1
  64       24       61 1
  65       24       62 1
  66       25       63 1
  67       26       64 1
  68       30       65 1
  69       32       66 1
  70       32       67 1
  71       32       68 1
  72       35       69 1
  73       35       70 1
  74       36       71 1
  75       36       72 1

@<TRIPOS>MOLECULE

  72   75
SMALL
USER_CHARGES
@<TRIPOS>ATOM
   1 C1          -1.6625    -2.6881     3.8135 C.3          1    LIG   0.0000
   2 C2          -2.3641    -3.1626     2.5513 C.2          1    LIG   0.0000
   3 C3          -3.1869    -4.4405     2.5739 C.3          1    LIG   0.0000
   4 C4          -2.2605    -2.4755     1.4526 C.2          1    LIG   0.0000
   5 C5          -1.4377    -1.1977     1.4301 C.3          1    LIG   0.0000
   6 C6          -1.0627    -0.8618    -0.0041 C.3          1    LIG   0.0000
   7 N7           0.0889     0.0505    -0.0083 N.pl3        1    LIG   0.0000
   8 C8           1.4004    -0.3102    -0.0301 C.2          1    LIG   0.0000
   9 C9           1.9531    -1.7256    -0.0595 C.3          1    LIG   0.0000
  10 O10          2.9109    -1.8383    -1.1018 O.3          1    LIG   0.0000
  11 C11          2.4497    -1.5838    -2.3448 C.ar         1    LIG   0.0000
  12 C12          3.3511    -1.2575    -3.3521 C.ar         1    LIG   0.0000
  13 C13          2.8655    -0.9962    -4.6293 C.ar         1    LIG   0.0000
  14 C14          3.8380    -0.6382    -5.7408 C.3          1    LIG   0.0000
  15 C15          1.5045    -1.0565    -4.9077 C.ar         1    LIG   0.0000
  16 C16          0.6246    -1.3856    -3.8825 C.ar         1    LIG   0.0000
  17 C17         -0.8664    -1.4562    -4.1686 C.3          1    LIG   0.0000
  18 C18          1.0836    -1.6510    -2.5969 C.ar         1    LIG   0.0000
  19 N19          2.0968     0.8006    -0.0246 N.2          1    LIG   0.0000
  20 N20          1.2808     1.8391     0.0060 N.2          1    LIG   0.0000
  21 C21          0.0426     1.4109     0.0126 C.2          1    LIG   0.0000
  22 N22         -1.1092     2.2046     0.0325 N.pl3        1    LIG   0.0000
  23 C23         -2.4206     1.5355     0.0369 C.3          1    LIG   0.0000
  24 C24         -3.4611     2.3202     0.8238 C.3          1    LIG   0.0000
  25 C25         -3.4515     3.8059     0.4892 C.3          1    LIG   0.0000
  26 N26         -4.4258     4.4807     1.3630 N.am         1    LIG   0.0000
  27 C27         -5.4571     5.1966     0.8145 C.2          1    LIG   0.0000
  28 O28         -5.5664     5.2737    -0.3780 O.2          1    LIG   0.0000
  29 C29         -6.4163     5.8609     1.6749 C.2          1    LIG   0.0000
  30 C30         -7.5239     6.6287     1.2607 C.2          1    LIG   0.0000
  31 C31         -8.1044     7.0291     2.4230 C.2          1    LIG   0.0000
  32 C32         -9.3501     7.8909     2.5485 C.3          1    LIG   0.0000
  33 O33         -7.4013     6.5480     3.4164 O.2          1    LIG   0.0000
  34 N34         -6.4215     5.8631     2.9844 N.2          1    LIG   0.0000
  35 C35         -2.0725     4.3547     0.8310 C.3          1    LIG   0.0000
  36 C36         -0.9568     3.6693     0.0538 C.3          1    LIG   0.0000
  37 H           -1.8466    -3.3294     4.5584 H            1    LIG   0.0000
  38 H           -0.6771    -2.6416     3.6496 H            1    LIG   0.0000
  39 H           -2.0021    -1.7812     4.0627 H            1    LIG   0.0000
  40 H           -3.1595    -4.8385     3.4908 H            1    LIG   0.0000
  41 H           -4.1338    -4.2316     2.3294 H            1    LIG   0.0000
  42 H           -2.8088    -5.0920     1.9162 H            1    LIG   0.0000
  43 H           -2.7221    -2.7877     0.6223 H            1    LIG   0.0000
  44 H           -0.6063    -1.3270     1.9705 H            1    LIG   0.0000
  45 H           -1.9745    -0.4487     1.8184 H            1    LIG   0.0000
  46 H           -0.8243    -1.7016    -0.4918 H            1    LIG   0.0000
  47 H           -1.8381    -0.4219    -0.4571 H            1    LIG   0.0000
  48 H            2.3884    -1.9318     0.8169 H            1    LIG   0.0000
  49 H            1.2070    -2.3715    -0.2211 H            1    LIG   0.0000
  50 H            4.3317    -1.2114    -3.1616 H            1    LIG   0.0000
  51 H            3.3318    -0.4818    -6.5889 H            1    LIG   0.0000
  52 H            4.3369     0.1921    -5.4925 H            1    LIG   0.0000
  53 H            4.4850    -1.3892    -5.8723 H            1    LIG   0.0000
  54 H            1.1645    -0.8666    -5.8288 H            1    LIG   0.0000
  55 H           -1.0317    -1.2408    -5.1311 H            1    LIG   0.0000
  56 H           -1.2003    -2.3779    -3.9712 H            1    LIG   0.0000
  57 H           -1.3481    -0.7965    -3.5919 H            1    LIG   0.0000
  58 H            0.4425    -1.8862    -1.8664 H            1    LIG   0.0000
  59 H           -2.3193     0.6303     0.4497 H            1    LIG   0.0000
  60 H           -2.7361     1.4380    -0.9070 H            1    LIG   0.0000
  61 H           -4.3664     1.9508     0.6145 H            1    LIG   0.0000
  62 H           -3.2739     2.2107     1.8000 H            1    LIG   0.0000
  63 H           -3.6690     3.9578    -0.4750 H            1    LIG   0.0000
  64 H           -4.3346     4.4164     2.3567 H            1    LIG   0.0000
  65 H           -7.8157     6.8322     0.3261 H            1    LIG   0.0000
  66 H           -9.6895     8.1210     1.6364 H            1    LIG   0.0000
  67 H          -10.0545     7.3878     3.0492 H            1    LIG   0.0000
  68 H           -9.1258     8.7310     3.0424 H            1    LIG   0.0000
  69 H           -1.9091     4.2223     1.8087 H            1    LIG   0.0000
  70 H           -2.0558     5.3319     0.6196 H            1    LIG   0.0000
  71 H           -0.9657     4.0074    -0.8873 H            1    LIG   0.0000
  72 H           -0.0813     3.8954     0.4810 H            1    LIG   0.0000
@<TRIPOS>BOND
   1        1        2 1
   2        2        3 1
   3        2        4 2
   4        4        5 1
   5        5        6 1
   6        6        7 1
   7        7        8 1
   8        8        9 1
   9        9       10 1
  10       10       11 1
  11       11       12 ar
  12       12       13 ar
  13       13       14 1
  14       13       15 ar
  15       15       16 ar
  16       16       17 1
  17       16       18 ar
  18       18       11 ar
  19        8       19 2
  20       19       20 1
  21       20       21 2
  22       21        7 1
  23       21       22 1
  24       22       23 1
  25       23       24 1
  26       24       25 1
  27       25       26 1
  28       26       27 am
  29       27       28 2
  30       27       29 1
  31       29       30 1
  32       30       31 2
  33       31       32 1
  34       31       33 1
  35       33       34 1
  36       34       29 2
  37       25       35 1
  38       35       36 1
  39       36       22 1
  40        1       37 1
  41        1       38 1
  42        1       39 1
  43        3       40 1
  44        3       41 1
  45        3       42 1
  46        4       43 1
  47        5       44 1
  48        5       45 1
  49        6       46 1
  50        6       47 1
  51        9       48 1
  52        9       49 1
  53       12       50 1
  54       14       51 1
  55       14       52 1
  56       14       53 1
  57       15       54 1
  58       17       55 1
  59       17       56 1
  60       17       57 1
  61       18       58 1
  62       23       59 1
  63       23       60 1
  64       24       61 1
  65       24       62 1
  66       25       63 1
  67       26       64 1
  68       30       65 1
  69       32       66 1
  70       32       67 1
  71       32       68 1
  72       35       69 1
  73       35       70 1
  74       36       71 1
  75       36       72 1

@<TRIPOS>MOLECULE

  72   75
SMALL
USER_CHARGES
@<TRIPOS>ATOM
   1 C1          -3.5625    -0.0286     3.3613 C.3          1    LIG   0.0000
   2 C2          -4.0659    -0.7350     2.1131 C.2          1    LIG   0.0000
   3 C3          -5.5498    -1.0189     1.9468 C.3          1    LIG   0.0000
   4 C4          -3.2273    -1.0962     1.1878 C.2          1    LIG   0.0000
   5 C5          -1.7433    -0.8123     1.3541 C.3          1    LIG   0.0000
   6 C6          -1.0627    -0.8618    -0.0041 C.3          1    LIG   0.0000
   7 N7           0.0889     0.0505    -0.0083 N.pl3        1    LIG   0.0000
   8 C8           1.4004    -0.3102    -0.0301 C.2          1    LIG   0.0000
   9 C9           1.9531    -1.7256    -0.0595 C.3          1    LIG   0.0000
  10 O10          2.1045    -2.1468    -1.4071 O.3          1    LIG   0.0000
  11 C11          3.3013    -1.8758    -1.9697 C.ar         1    LIG   0.0000
  12 C12          3.5357    -2.2535    -3.2873 C.ar         1    LIG   0.0000
  13 C13          4.7727    -1.9704    -3.8574 C.ar         1    LIG   0.0000
  14 C14          5.0441    -2.3768    -5.2963 C.3          1    LIG   0.0000
  15 C15          5.7669    -1.3215    -3.1334 C.ar         1    LIG   0.0000
  16 C16          5.5065    -0.9542    -1.8178 C.ar         1    LIG   0.0000
  17 C17          6.5814    -0.2441    -1.0114 C.3          1    LIG   0.0000
  18 C18          4.2787    -1.2255    -1.2238 C.ar         1    LIG   0.0000
  19 N19          2.0968     0.8006    -0.0246 N.2          1    LIG   0.0000
  20 N20          1.2808     1.8391     0.0060 N.2          1    LIG   0.0000
  21 C21          0.0426     1.4109     0.0126 C.2          1    LIG   0.0000
  22 N22         -1.1092     2.2046     0.0325 N.pl3        1    LIG   0.0000
  23 C23         -2.4206     1.5355     0.0369 C.3          1    LIG   0.0000
  24 C24         -3.4611     2.3202     0.8238 C.3          1    LIG   0.0000
  25 C25         -3.4515     3.8059     0.4892 C.3          1    LIG   0.0000
  26 N26         -4.4258     4.4807     1.3630 N.am         1    LIG   0.0000
  27 C27         -5.4571     5.1966     0.8145 C.2          1    LIG   0.0000
  28 O28         -5.5664     5.2737    -0.3780 O.2          1    LIG   0.0000
  29 C29         -6.4163     5.8609     1.6749 C.2          1    LIG   0.0000
  30 C30         -7.5239     6.6287     1.2607 C.2          1    LIG   0.0000
  31 C31         -8.1044     7.0291     2.4230 C.2          1    LIG   0.0000
  32 C32         -9.3501     7.8909     2.5485 C.3          1    LIG   0.0000
  33 O33         -7.4013     6.5480     3.4164 O.2          1    LIG   0.0000
  34 N34         -6.4215     5.8631     2.9844 N.2          1    LIG   0.0000
  35 C35         -2.0725     4.3547     0.8310 C.3          1    LIG   0.0000
  36 C36         -0.9568     3.6693     0.0538 C.3          1    LIG   0.0000
  37 H           -4.3346     0.1759     3.9629 H            1    LIG   0.0000
  38 H           -2.9141    -0.6202     3.8405 H            1    LIG   0.0000
  39 H           -3.1075     0.8232     3.1017 H            1    LIG   0.0000
  40 H           -6.0461    -0.6769     2.7447 H            1    LIG   0.0000
  41 H           -5.8865    -0.5616     1.1237 H            1    LIG   0.0000
  42 H           -5.6931    -2.0050     1.8625 H            1    LIG   0.0000
  43 H           -3.5585    -1.5609     0.3666 H            1    LIG   0.0000
  44 H           -1.3376    -1.5005     1.9555 H            1    LIG   0.0000
  45 H           -1.6205     0.0953     1.7556 H            1    LIG   0.0000
  46 H           -0.7500    -1.7940    -0.1865 H            1    LIG   0.0000
  47 H           -1.7113    -0.5831    -0.7124 H            1    LIG   0.0000
  48 H            2.8421    -1.7459     0.3980 H            1    LIG   0.0000
  49 H            1.3212    -2.3401     0.4128 H            1    LIG   0.0000
  50 H            2.8271    -2.7207    -3.8160 H            1    LIG   0.0000
  51 H            5.9715    -2.1028    -5.5508 H            1    LIG   0.0000
  52 H            4.9533    -3.3687    -5.3853 H            1    LIG   0.0000
  53 H            4.3861    -1.9263    -5.8997 H            1    LIG   0.0000
  54 H            6.6532    -1.1225    -3.5514 H            1    LIG   0.0000
  55 H            7.3976    -0.1244    -1.5766 H            1    LIG   0.0000
  56 H            6.2432     0.6509    -0.7205 H            1    LIG   0.0000
  57 H            6.8106    -0.7916    -0.2066 H            1    LIG   0.0000
  58 H            4.1016    -0.9578    -0.2767 H            1    LIG   0.0000
  59 H           -2.3193     0.6303     0.4497 H            1    LIG   0.0000
  60 H           -2.7361     1.4380    -0.9070 H            1    LIG   0.0000
  61 H           -4.3664     1.9508     0.6145 H            1    LIG   0.0000
  62 H           -3.2739     2.2107     1.8000 H            1    LIG   0.0000
  63 H           -3.6690     3.9578    -0.4750 H            1    LIG   0.0000
  64 H           -4.3346     4.4164     2.3567 H            1    LIG   0.0000
  65 H           -7.8157     6.8322     0.3261 H            1    LIG   0.0000
  66 H           -9.6895     8.1210     1.6364 H            1    LIG   0.0000
  67 H          -10.0545     7.3878     3.0492 H            1    LIG   0.0000
  68 H           -9.1258     8.7310     3.0424 H            1    LIG   0.0000
  69 H           -1.9091     4.2223     1.8087 H            1    LIG   0.0000
  70 H           -2.0558     5.3319     0.6196 H            1    LIG   0.0000
  71 H           -0.9657     4.0074    -0.8873 H            1    LIG   0.0000
  72 H           -0.0813     3.8954     0.4810 H            1    LIG   0.0000
@<TRIPOS>BOND
   1        1        2 1
   2        2        3 1
   3        2        4 2
   4        4        5 1
   5        5        6 1
   6        6        7 1
   7        7        8 1
   8        8        9 1
   9        9       10 1
  10       10       11 1
  11       11       12 ar
  12       12       13 ar
  13       13       14 1
  14       13       15 ar
  15       15       16 ar
  16       16       17 1
  17       16       18 ar
  18       18       11 ar
  19        8       19 2
  20       19       20 1
  21       20       21 2
  22       21        7 1
  23       21       22 1
  24       22       23 1
  25       23       24 1
  26       24       25 1
  27       25       26 1
  28       26       27 am
  29       27       28 2
  30       27       29 1
  31       29       30 1
  32       30       31 2
  33       31       32 1
  34       31       33 1
  35       33       34 1
  36       34       29 2
  37       25       35 1
  38       35       36 1
  39       36       22 1
  40        1       37 1
  41        1       38 1
  42        1       39 1
  43        3       40 1
  44        3       41 1
  45        3       42 1
  46        4       43 1
  47        5       44 1
  48        5       45 1
  49        6       46 1
  50        6       47 1
  51        9       48 1
  52        9       49 1
  53       12       50 1
  54       14       51 1
  55       14       52 1
  56       14       53 1
  57       15       54 1
  58       17       55 1
  59       17       56 1
  60       17       57 1
  61       18       58 1
  62       23       59 1
  63       23       60 1
  64       24       61 1
  65       24       62 1
  66       25       63 1
  67       26       64 1
  68       30       65 1
  69       32       66 1
  70       32       67 1
  71       32       68 1
  72       35       69 1
  73       35       70 1
  74       36       71 1
  75       36       72 1

@<TRIPOS>MOLECULE

  72   75
SMALL
USER_CHARGES
@<TRIPOS>ATOM
   1 C1          -3.5625    -0.0286     3.3613 C.3          1    LIG   0.0000
   2 C2          -4.0659    -0.7350     2.1131 C.2          1    LIG   0.0000
   3 C3          -5.5498    -1.0189     1.9468 C.3          1    LIG   0.0000
   4 C4          -3.2273    -1.0962     1.1878 C.2          1    LIG   0.0000
   5 C5          -1.7433    -0.8123     1.3541 C.3          1    LIG   0.0000
   6 C6          -1.0627    -0.8618    -0.0041 C.3          1    LIG   0.0000
   7 N7           0.0889     0.0505    -0.0083 N.pl3        1    LIG   0.0000
   8 C8           1.4004    -0.3102    -0.0301 C.2          1    LIG   0.0000
   9 C9           1.9531    -1.7256    -0.0595 C.3          1    LIG   0.0000
  10 O10          2.9427    -1.8684     0.9489 O.3          1    LIG   0.0000
  11 C11          4.1624    -1.3795     0.6396 C.ar         1    LIG   0.0000
  12 C12          5.0588    -1.0884     1.6619 C.ar         1    LIG   0.0000
  13 C13          6.3129    -0.5842     1.3325 C.ar         1    LIG   0.0000
  14 C14          7.3036    -0.2612     2.4385 C.3          1    LIG   0.0000
  15 C15          6.6767    -0.3699     0.0076 C.ar         1    LIG   0.0000
  16 C16          5.7617    -0.6697    -0.9955 C.ar         1    LIG   0.0000
  17 C17          6.1422    -0.4419    -2.4492 C.3          1    LIG   0.0000
  18 C18          4.5015    -1.1745    -0.6937 C.ar         1    LIG   0.0000
  19 N19          2.0968     0.8006    -0.0246 N.2          1    LIG   0.0000
  20 N20          1.2808     1.8391     0.0060 N.2          1    LIG   0.0000
  21 C21          0.0426     1.4109     0.0126 C.2          1    LIG   0.0000
  22 N22         -1.1092     2.2046     0.0325 N.pl3        1    LIG   0.0000
  23 C23         -2.4206     1.5355     0.0369 C.3          1    LIG   0.0000
  24 C24         -3.4611     2.3202     0.8238 C.3          1    LIG   0.0000
  25 C25         -3.4515     3.8059     0.4892 C.3          1    LIG   0.0000
  26 N26         -4.4258     4.4807     1.3630 N.am         1    LIG   0.0000
  27 C27         -5.4571     5.1966     0.8145 C.2          1    LIG   0.0000
  28 O28         -5.5664     5.2737    -0.3780 O.2          1    LIG   0.0000
  29 C29         -6.4163     5.8609     1.6749 C.2          1    LIG   0.0000
  30 C30         -7.5239     6.6287     1.2607 C.2          1    LIG   0.0000
  31 C31         -8.1044     7.0291     2.4230 C.2          1    LIG   0.0000
  32 C32         -9.3501     7.8909     2.5485 C.3          1    LIG   0.0000
  33 O33         -7.4013     6.5480     3.4164 O.2          1    LIG   0.0000
  34 N34         -6.4215     5.8631     2.9844 N.2          1    LIG   0.0000
  35 C35         -2.0725     4.3547     0.8310 C.3          1    LIG   0.0000
  36 C36         -0.9568     3.6693     0.0538 C.3          1    LIG   0.0000
  37 H           -4.3346     0.1759     3.9629 H            1    LIG   0.0000
  38 H           -2.9141    -0.6202     3.8405 H            1    LIG   0.0000
  39 H           -3.1075     0.8232     3.1017 H            1    LIG   0.0000
  40 H           -6.0461    -0.6769     2.7447 H            1    LIG   0.0000
  41 H           -5.8865    -0.5616     1.1237 H            1    LIG   0.0000
  42 H           -5.6931    -2.0050     1.8625 H            1    LIG   0.0000
  43 H           -3.5585    -1.5609     0.3666 H            1    LIG   0.0000
  44 H           -1.3376    -1.5005     1.9555 H            1    LIG   0.0000
  45 H           -1.6205     0.0953     1.7556 H            1    LIG   0.0000
  46 H           -0.7500    -1.7940    -0.1865 H            1    LIG   0.0000
  47 H           -1.7113    -0.5831    -0.7124 H            1    LIG   0.0000
  48 H            1.2121    -2.3763     0.1062 H            1    LIG   0.0000
  49 H            2.3609    -1.9057    -0.9546 H            1    LIG   0.0000
  50 H            4.8064    -1.2390     2.6177 H            1    LIG   0.0000
  51 H            8.1496     0.0889     2.0364 H            1    LIG   0.0000
  52 H            6.9119     0.4304     3.0454 H            1    LIG   0.0000
  53 H            7.5013    -1.0903     2.9616 H            1    LIG   0.0000
  54 H            7.5802    -0.0067    -0.2197 H            1    LIG   0.0000
  55 H            7.0727    -0.0788    -2.4973 H            1    LIG   0.0000
  56 H            6.0966    -1.3088    -2.9455 H            1    LIG   0.0000
  57 H            5.5076     0.2119    -2.8613 H            1    LIG   0.0000
  58 H            3.8504    -1.3863    -1.4225 H            1    LIG   0.0000
  59 H           -2.3193     0.6303     0.4497 H            1    LIG   0.0000
  60 H           -2.7361     1.4380    -0.9070 H            1    LIG   0.0000
  61 H           -4.3664     1.9508     0.6145 H            1    LIG   0.0000
  62 H           -3.2739     2.2107     1.8000 H            1    LIG   0.0000
  63 H           -3.6690     3.9578    -0.4750 H            1    LIG   0.0000
  64 H           -4.3346     4.4164     2.3567 H            1    LIG   0.0000
  65 H           -7.8157     6.8322     0.3261 H            1    LIG   0.0000
  66 H           -9.6895     8.1210     1.6364 H            1    LIG   0.0000
  67 H          -10.0545     7.3878     3.0492 H            1    LIG   0.0000
  68 H           -9.1258     8.7310     3.0424 H            1    LIG   0.0000
  69 H           -1.9091     4.2223     1.8087 H            1    LIG   0.0000
  70 H           -2.0558     5.3319     0.6196 H            1    LIG   0.0000
  71 H           -0.9657     4.0074    -0.8873 H            1    LIG   0.0000
  72 H           -0.0813     3.8954     0.4810 H            1    LIG   0.0000
@<TRIPOS>BOND
   1        1        2 1
   2        2        3 1
   3        2        4 2
   4        4        5 1
   5        5        6 1
   6        6        7 1
   7        7        8 1
   8        8        9 1
   9        9       10 1
  10       10       11 1
  11       11       12 ar
  12       12       13 ar
  13       13       14 1
  14       13       15 ar
  15       15       16 ar
  16       16       17 1
  17       16       18 ar
  18       18       11 ar
  19        8       19 2
  20       19       20 1
  21       20       21 2
  22       21        7 1
  23       21       22 1
  24       22       23 1
  25       23       24 1
  26       24       25 1
  27       25       26 1
  28       26       27 am
  29       27       28 2
  30       27       29 1
  31       29       30 1
  32       30       31 2
  33       31       32 1
  34       31       33 1
  35       33       34 1
  36       34       29 2
  37       25       35 1
  38       35       36 1
  39       36       22 1
  40        1       37 1
  41        1       38 1
  42        1       39 1
  43        3       40 1
  44        3       41 1
  45        3       42 1
  46        4       43 1
  47        5       44 1
  48        5       45 1
  49        6       46 1
  50        6       47 1
  51        9       48 1
  52        9       49 1
  53       12       50 1
  54       14       51 1
  55       14       52 1
  56       14       53 1
  57       15       54 1
  58       17       55 1
  59       17       56 1
  60       17       57 1
  61       18       58 1
  62       23       59 1
  63       23       60 1
  64       24       61 1
  65       24       62 1
  66       25       63 1
  67       26       64 1
  68       30       65 1
  69       32       66 1
  70       32       67 1
  71       32       68 1
  72       35       69 1
  73       35       70 1
  74       36       71 1
  75       36       72 1

@<TRIPOS>MOLECULE

  72   75
SMALL
USER_CHARGES
@<TRIPOS>ATOM
   1 C1          -2.6481    -3.4687     1.0759 C.3          1    LIG   0.0000
   2 C2          -3.6444    -2.3208     1.0596 C.2          1    LIG   0.0000
   3 C3          -5.1283    -2.6047     0.8932 C.3          1    LIG   0.0000
   4 C4          -3.2273    -1.0962     1.1878 C.2          1    LIG   0.0000
   5 C5          -1.7433    -0.8123     1.3541 C.3          1    LIG   0.0000
   6 C6          -1.0627    -0.8618    -0.0041 C.3          1    LIG   0.0000
   7 N7           0.0889     0.0505    -0.0083 N.pl3        1    LIG   0.0000
   8 C8           1.4004    -0.3102    -0.0301 C.2          1    LIG   0.0000
   9 C9           1.9531    -1.7256    -0.0595 C.3          1    LIG   0.0000
  10 O10          2.1045    -2.1468    -1.4071 O.3          1    LIG   0.0000
  11 C11          1.1225    -2.9426    -1.8811 C.ar         1    LIG   0.0000
  12 C12          0.9476    -3.0638    -3.2552 C.ar         1    LIG   0.0000
  13 C13         -0.0678    -3.8858    -3.7334 C.ar         1    LIG   0.0000
  14 C14         -0.2715    -4.0286    -5.2325 C.3          1    LIG   0.0000
  15 C15         -0.9012    -4.5799    -2.8631 C.ar         1    LIG   0.0000
  16 C16         -0.7047    -4.4414    -1.4936 C.ar         1    LIG   0.0000
  17 C17         -1.6061    -5.1926    -0.5276 C.3          1    LIG   0.0000
  18 C18          0.3027    -3.6261    -0.9893 C.ar         1    LIG   0.0000
  19 N19          2.0968     0.8006    -0.0246 N.2          1    LIG   0.0000
  20 N20          1.2808     1.8391     0.0060 N.2          1    LIG   0.0000
  21 C21          0.0426     1.4109     0.0126 C.2          1    LIG   0.0000
  22 N22         -1.1092     2.2046     0.0325 N.pl3        1    LIG   0.0000
  23 C23         -2.4206     1.5355     0.0369 C.3          1    LIG   0.0000
  24 C24         -3.4611     2.3202     0.8238 C.3          1    LIG   0.0000
  25 C25         -3.4515     3.8059     0.4892 C.3          1    LIG   0.0000
  26 N26         -4.4258     4.4807     1.3630 N.am         1    LIG   0.0000
  27 C27         -5.4571     5.1966     0.8145 C.2          1    LIG   0.0000
  28 O28         -5.5664     5.2737    -0.3780 O.2          1    LIG   0.0000
  29 C29         -6.4163     5.8609     1.6749 C.2          1    LIG   0.0000
  30 C30         -7.5239     6.6287     1.2607 C.2          1    LIG   0.0000
  31 C31         -8.1044     7.0291     2.4230 C.2          1    LIG   0.0000
  32 C32         -9.3501     7.8909     2.5485 C.3          1    LIG   0.0000
  33 O33         -7.4013     6.5480     3.4164 O.2          1    LIG   0.0000
  34 N34         -6.4215     5.8631     2.9844 N.2          1    LIG   0.0000
  35 C35         -2.0725     4.3547     0.8310 C.3          1    LIG   0.0000
  36 C36         -0.9568     3.6693     0.0538 C.3          1    LIG   0.0000
  37 H           -3.1357    -4.3348     0.9663 H            1    LIG   0.0000
  38 H           -1.9968    -3.3555     0.3256 H            1    LIG   0.0000
  39 H           -2.1564    -3.4709     1.9467 H            1    LIG   0.0000
  40 H           -5.2716    -3.5908     0.8090 H            1    LIG   0.0000
  41 H           -5.6246    -2.2628     1.6912 H            1    LIG   0.0000
  42 H           -5.4650    -2.1474     0.0701 H            1    LIG   0.0000
  43 H           -3.8827    -0.3410     1.1770 H            1    LIG   0.0000
  44 H           -1.3376    -1.5005     1.9555 H            1    LIG   0.0000
  45 H           -1.6205     0.0953     1.7556 H            1    LIG   0.0000
  46 H           -0.7500    -1.7940    -0.1865 H            1    LIG   0.0000
  47 H           -1.7113    -0.5831    -0.7124 H            1    LIG   0.0000
  48 H            2.8421    -1.7459     0.3980 H            1    LIG   0.0000
  49 H            1.3212    -2.3401     0.4128 H            1    LIG   0.0000
  50 H            1.5418    -2.5686    -3.8890 H            1    LIG   0.0000
  51 H           -1.0354    -4.6498    -5.4074 H            1    LIG   0.0000
  52 H           -0.4731    -3.1326    -5.6283 H            1    LIG   0.0000
  53 H            0.5599    -4.3973    -5.6482 H            1    LIG   0.0000
  54 H           -1.6289    -5.1681    -3.2160 H            1    LIG   0.0000
  55 H           -2.2733    -5.7299    -1.0436 H            1    LIG   0.0000
  56 H           -1.0525    -5.8034     0.0384 H            1    LIG   0.0000
  57 H           -2.0856    -4.5389     0.0578 H            1    LIG   0.0000
  58 H            0.4354    -3.5328    -0.0025 H            1    LIG   0.0000
  59 H           -2.3193     0.6303     0.4497 H            1    LIG   0.0000
  60 H           -2.7361     1.4380    -0.9070 H            1    LIG   0.0000
  61 H           -4.3664     1.9508     0.6145 H            1    LIG   0.0000
  62 H           -3.2739     2.2107     1.8000 H            1    LIG   0.0000
  63 H           -3.6690     3.9578    -0.4750 H            1    LIG   0.0000
  64 H           -4.3346     4.4164     2.3567 H            1    LIG   0.0000
  65 H           -7.8157     6.8322     0.3261 H            1    LIG   0.0000
  66 H           -9.6895     8.1210     1.6364 H            1    LIG   0.0000
  67 H          -10.0545     7.3878     3.0492 H            1    LIG   0.0000
  68 H           -9.1258     8.7310     3.0424 H            1    LIG   0.0000
  69 H           -1.9091     4.2223     1.8087 H            1    LIG   0.0000
  70 H           -2.0558     5.3319     0.6196 H            1    LIG   0.0000
  71 H           -0.9657     4.0074    -0.8873 H            1    LIG   0.0000
  72 H           -0.0813     3.8954     0.4810 H            1    LIG   0.0000
@<TRIPOS>BOND
   1        1        2 1
   2        2        3 1
   3        2        4 2
   4        4        5 1
   5        5        6 1
   6        6        7 1
   7        7        8 1
   8        8        9 1
   9        9       10 1
  10       10       11 1
  11       11       12 ar
  12       12       13 ar
  13       13       14 1
  14       13       15 ar
  15       15       16 ar
  16       16       17 1
  17       16       18 ar
  18       18       11 ar
  19        8       19 2
  20       19       20 1
  21       20       21 2
  22       21        7 1
  23       21       22 1
  24       22       23 1
  25       23       24 1
  26       24       25 1
  27       25       26 1
  28       26       27 am
  29       27       28 2
  30       27       29 1
  31       29       30 1
  32       30       31 2
  33       31       32 1
  34       31       33 1
  35       33       34 1
  36       34       29 2
  37       25       35 1
  38       35       36 1
  39       36       22 1
  40        1       37 1
  41        1       38 1
  42        1       39 1
  43        3       40 1
  44        3       41 1
  45        3       42 1
  46        4       43 1
  47        5       44 1
  48        5       45 1
  49        6       46 1
  50        6       47 1
  51        9       48 1
  52        9       49 1
  53       12       50 1
  54       14       51 1
  55       14       52 1
  56       14       53 1
  57       15       54 1
  58       17       55 1
  59       17       56 1
  60       17       57 1
  61       18       58 1
  62       23       59 1
  63       23       60 1
  64       24       61 1
  65       24       62 1
  66       25       63 1
  67       26       64 1
  68       30       65 1
  69       32       66 1
  70       32       67 1
  71       32       68 1
  72       35       69 1
  73       35       70 1
  74       36       71 1
  75       36       72 1

@<TRIPOS>MOLECULE

  72   75
SMALL
USER_CHARGES
@<TRIPOS>ATOM
   1 C1          -1.6625    -2.6881     3.8135 C.3          1    LIG   0.0000
   2 C2          -2.3641    -3.1626     2.5513 C.2          1    LIG   0.0000
   3 C3          -3.1869    -4.4405     2.5739 C.3          1    LIG   0.0000
   4 C4          -2.2605    -2.4755     1.4526 C.2          1    LIG   0.0000
   5 C5          -1.4377    -1.1977     1.4301 C.3          1    LIG   0.0000
   6 C6          -1.0627    -0.8618    -0.0041 C.3          1    LIG   0.0000
   7 N7           0.0889     0.0505    -0.0083 N.pl3        1    LIG   0.0000
   8 C8           1.4004    -0.3102    -0.0301 C.2          1    LIG   0.0000
   9 C9           1.9531    -1.7256    -0.0595 C.3          1    LIG   0.0000
  10 O10          0.8783    -2.6536    -0.0564 O.3          1    LIG   0.0000
  11 C11          1.1800    -3.8938    -0.4962 C.ar         1    LIG   0.0000
  12 C12          0.3542    -4.9582    -0.1519 C.ar         1    LIG   0.0000
  13 C13          0.6744    -6.2323    -0.6094 C.ar         1    LIG   0.0000
  14 C14         -0.2183    -7.4058    -0.2416 C.3          1    LIG   0.0000
  15 C15          1.7983    -6.4520    -1.3981 C.ar         1    LIG   0.0000
  16 C16          2.6072    -5.3703    -1.7284 C.ar         1    LIG   0.0000
  17 C17          3.8397    -5.5917    -2.5897 C.3          1    LIG   0.0000
  18 C18          2.3100    -4.0865    -1.2839 C.ar         1    LIG   0.0000
  19 N19          2.0968     0.8006    -0.0246 N.2          1    LIG   0.0000
  20 N20          1.2808     1.8391     0.0060 N.2          1    LIG   0.0000
  21 C21          0.0426     1.4109     0.0126 C.2          1    LIG   0.0000
  22 N22         -1.1092     2.2046     0.0325 N.pl3        1    LIG   0.0000
  23 C23         -2.4206     1.5355     0.0369 C.3          1    LIG   0.0000
  24 C24         -3.4611     2.3202     0.8238 C.3          1    LIG   0.0000
  25 C25         -3.4515     3.8059     0.4892 C.3          1    LIG   0.0000
  26 N26         -4.4258     4.4807     1.3630 N.am         1    LIG   0.0000
  27 C27         -5.4571     5.1966     0.8145 C.2          1    LIG   0.0000
  28 O28         -5.5664     5.2737    -0.3780 O.2          1    LIG   0.0000
  29 C29         -6.4163     5.8609     1.6749 C.2          1    LIG   0.0000
  30 C30         -7.7114     6.2871     1.3155 C.2          1    LIG   0.0000
  31 C31         -8.2060     6.8432     2.4531 C.2          1    LIG   0.0000
  32 C32         -9.5835     7.4644     2.6175 C.3          1    LIG   0.0000
  33 O33         -7.2882     6.7561     3.3818 O.2          1    LIG   0.0000
  34 N34         -6.2476     6.1799     2.9337 N.2          1    LIG   0.0000
  35 C35         -2.0725     4.3547     0.8310 C.3          1    LIG   0.0000
  36 C36         -0.9568     3.6693     0.0538 C.3          1    LIG   0.0000
  37 H           -1.8466    -3.3294     4.5584 H            1    LIG   0.0000
  38 H           -0.6771    -2.6416     3.6496 H            1    LIG   0.0000
  39 H           -2.0021    -1.7812     4.0627 H            1    LIG   0.0000
  40 H           -3.1595    -4.8385     3.4908 H            1    LIG   0.0000
  41 H           -4.1338    -4.2316     2.3294 H            1    LIG   0.0000
  42 H           -2.8088    -5.0920     1.9162 H            1    LIG   0.0000
  43 H           -2.7221    -2.7877     0.6223 H            1    LIG   0.0000
  44 H           -0.6063    -1.3270     1.9705 H            1    LIG   0.0000
  45 H           -1.9745    -0.4487     1.8184 H            1    LIG   0.0000
  46 H           -0.8243    -1.7016    -0.4918 H            1    LIG   0.0000
  47 H           -1.8381    -0.4219    -0.4571 H            1    LIG   0.0000
  48 H            2.5007    -1.8525    -0.8865 H            1    LIG   0.0000
  49 H            2.5261    -1.8765     0.7461 H            1    LIG   0.0000
  50 H           -0.4562    -4.8103     0.4151 H            1    LIG   0.0000
  51 H            0.1486    -8.2434    -0.6463 H            1    LIG   0.0000
  52 H           -0.2493    -7.5021     0.7533 H            1    LIG   0.0000
  53 H           -1.1417    -7.2441    -0.5897 H            1    LIG   0.0000
  54 H            2.0209    -7.3715    -1.7221 H            1    LIG   0.0000
  55 H            3.9124    -6.5610    -2.8245 H            1    LIG   0.0000
  56 H            3.7627    -5.0507    -3.4271 H            1    LIG   0.0000
  57 H            4.6548    -5.3091    -2.0840 H            1    LIG   0.0000
  58 H            2.8985    -3.3152    -1.5265 H            1    LIG   0.0000
  59 H           -2.3193     0.6303     0.4497 H            1    LIG   0.0000
  60 H           -2.7361     1.4380    -0.9070 H            1    LIG   0.0000
  61 H           -4.3664     1.9508     0.6145 H            1    LIG   0.0000
  62 H           -3.2739     2.2107     1.8000 H            1    LIG   0.0000
  63 H           -3.6690     3.9578    -0.4750 H            1    LIG   0.0000
  64 H           -4.3346     4.4164     2.3567 H            1    LIG   0.0000
  65 H           -8.1626     6.2001     0.4274 H            1    LIG   0.0000
  66 H          -10.0837     7.3995     1.7540 H            1    LIG   0.0000
  67 H          -10.0861     6.9767     3.3314 H            1    LIG   0.0000
  68 H           -9.4870     8.4258     2.8753 H            1    LIG   0.0000
  69 H           -1.9091     4.2223     1.8087 H            1    LIG   0.0000
  70 H           -2.0558     5.3319     0.6196 H            1    LIG   0.0000
  71 H           -0.9657     4.0074    -0.8873 H            1    LIG   0.0000
  72 H           -0.0813     3.8954     0.4810 H            1    LIG   0.0000
@<TRIPOS>BOND
   1        1        2 1
   2        2        3 1
   3        2        4 2
   4        4        5 1
   5        5        6 1
   6        6        7 1
   7        7        8 1
   8        8        9 1
   9        9       10 1
  10       10       11 1
  11       11       12 ar
  12       12       13 ar
  13       13       14 1
  14       13       15 ar
  15       15       16 ar
  16       16       17 1
  17       16       18 ar
  18       18       11 ar
  19        8       19 2
  20       19       20 1
  21       20       21 2
  22       21        7 1
  23       21       22 1
  24       22       23 1
  25       23       24 1
  26       24       25 1
  27       25       26 1
  28       26       27 am
  29       27       28 2
  30       27       29 1
  31       29       30 1
  32       30       31 2
  33       31       32 1
  34       31       33 1
  35       33       34 1
  36       34       29 2
  37       25       35 1
  38       35       36 1
  39       36       22 1
  40        1       37 1
  41        1       38 1
  42        1       39 1
  43        3       40 1
  44        3       41 1
  45        3       42 1
  46        4       43 1
  47        5       44 1
  48        5       45 1
  49        6       46 1
  50        6       47 1
  51        9       48 1
  52        9       49 1
  53       12       50 1
  54       14       51 1
  55       14       52 1
  56       14       53 1
  57       15       54 1
  58       17       55 1
  59       17       56 1
  60       17       57 1
  61       18       58 1
  62       23       59 1
  63       23       60 1
  64       24       61 1
  65       24       62 1
  66       25       63 1
  67       26       64 1
  68       30       65 1
  69       32       66 1
  70       32       67 1
  71       32       68 1
  72       35       69 1
  73       35       70 1
  74       36       71 1
  75       36       72 1

