@<TRIPOS>MOLECULE
*****
 72 75 0 0 0
SMALL
USER_CHARGES

@<TRIPOS>ATOM
      1 C1         -2.5146   -2.5671   -0.7875 C.3     1  LIG1        0.0000
      2 C2         -3.3655   -2.3386    0.4511 C.2     1  LIG1        0.0000
      3 C3         -4.7968   -2.8482    0.4944 C.3     1  LIG1        0.0000
      4 C4         -2.8691   -1.7073    1.4734 C.2     1  LIG1        0.0000
      5 C5         -1.4377   -1.1977    1.4301 C.3     1  LIG1        0.0000
      6 C6         -1.0627   -0.8618   -0.0041 C.3     1  LIG1        0.0000
      7 N7          0.0889    0.0505   -0.0083 N.pl3   1  LIG1        0.0000
      8 C8          1.4004   -0.3102   -0.0301 C.2     1  LIG1        0.0000
      9 C9          1.9531   -1.7256   -0.0595 C.3     1  LIG1        0.0000
     10 O10         2.1460   -2.1861    1.2699 O.2     1  LIG1        0.0000
     11 C11         1.1788   -2.9960    1.7505 C.3     1  LIG1        0.0000
     12 C12         1.0465   -3.1576    3.1252 C.3     1  LIG1        0.0000
     13 C13         0.0472   -3.9951    3.6102 C.3     1  LIG1        0.0000
     14 C14        -0.1100   -4.1820    5.1100 C.3     1  LIG1        0.0000
     15 C15        -0.8117   -4.6654    2.7461 C.3     1  LIG1        0.0000
     16 C16        -0.6582   -4.4861    1.3759 C.3     1  LIG1        0.0000
     17 C17        -1.5880   -5.2108    0.4166 C.3     1  LIG1        0.0000
     18 C18         0.3327   -3.6549    0.8647 C.3     1  LIG1        0.0000
     19 N19         2.0968    0.8006   -0.0246 N.2     1  LIG1        0.0000
     20 N20         1.2808    1.8391    0.0060 N.2     1  LIG1        0.0000
     21 C21         0.0426    1.4109    0.0126 C.cat   1  LIG1        0.0000
     22 N22        -1.1092    2.2046    0.0325 N.pl3   1  LIG1        0.0000
     23 C23        -2.4206    1.5355    0.0369 C.3     1  LIG1        0.0000
     24 C24        -3.4611    2.3202    0.8238 C.3     1  LIG1        0.0000
     25 C25        -3.4515    3.8059    0.4892 C.3     1  LIG1        0.0000
     26 N26        -4.4258    4.4807    1.3630 N.am    1  LIG1        0.0000
     27 C27        -5.4571    5.1966    0.8145 C.2     1  LIG1        0.0000
     28 O28        -5.5664    5.2737   -0.3780 O.2     1  LIG1        0.0000
     29 C29        -6.4163    5.8609    1.6749 C.2     1  LIG1        0.0000
     30 C30        -6.4189    5.8621    3.0848 C.2     1  LIG1        0.0000
     31 C31        -7.5023    6.6141    3.4147 C.2     1  LIG1        0.0000
     32 C32        -7.9686    6.9379    4.8247 C.3     1  LIG1        0.0000
     33 O33        -8.0782    7.0070    2.3073 O.2     1  LIG1        0.0000
     34 N34        -7.4454    6.5751    1.2930 N.2     1  LIG1        0.0000
     35 C35        -2.0725    4.3547    0.8310 C.3     1  LIG1        0.0000
     36 C36        -0.9568    3.6693    0.0538 C.3     1  LIG1        0.0000
     37 H          -3.0484   -3.0640   -1.4716 H       1  LIG1        0.0000
     38 H          -2.2293   -1.6854   -1.1632 H       1  LIG1        0.0000
     39 H          -1.7061   -3.1022   -0.5424 H       1  LIG1        0.0000
     40 H          -5.0139   -3.3061   -0.3676 H       1  LIG1        0.0000
     41 H          -4.8975   -3.4953    1.2502 H       1  LIG1        0.0000
     42 H          -5.4208   -2.0785    0.6293 H       1  LIG1        0.0000
     43 H          -3.4289   -1.5570    2.2883 H       1  LIG1        0.0000
     44 H          -0.8217   -1.9039    1.7790 H       1  LIG1        0.0000
     45 H          -1.3587   -0.3771    1.9962 H       1  LIG1        0.0000
     46 H          -0.8243   -1.7016   -0.4918 H       1  LIG1        0.0000
     47 H          -1.8381   -0.4219   -0.4571 H       1  LIG1        0.0000
     48 H           1.3065   -2.3263   -0.5298 H       1  LIG1        0.0000
     49 H           2.8275   -1.7320   -0.5446 H       1  LIG1        0.0000
     50 H           1.6595   -2.6799    3.7546 H       1  LIG1        0.0000
     51 H          -0.8675   -4.8095    5.2902 H       1  LIG1        0.0000
     52 H           0.7342   -4.5610    5.4890 H       1  LIG1        0.0000
     53 H          -0.3002   -3.2984    5.5379 H       1  LIG1        0.0000
     54 H          -1.5269   -5.2658    3.1039 H       1  LIG1        0.0000
     55 H          -2.2387   -5.7637    0.9369 H       1  LIG1        0.0000
     56 H          -2.0856   -4.5413   -0.1350 H       1  LIG1        0.0000
     57 H          -1.0514   -5.8041   -0.1834 H       1  LIG1        0.0000
     58 H           0.4352   -3.5331   -0.1225 H       1  LIG1        0.0000
     59 H          -2.3193    0.6303    0.4497 H       1  LIG1        0.0000
     60 H          -2.7361    1.4380   -0.9070 H       1  LIG1        0.0000
     61 H          -4.3664    1.9508    0.6145 H       1  LIG1        0.0000
     62 H          -3.2739    2.2107    1.8000 H       1  LIG1        0.0000
     63 H          -3.6690    3.9578   -0.4750 H       1  LIG1        0.0000
     64 H          -4.3346    4.4164    2.3567 H       1  LIG1        0.0000
     65 H          -5.7720    5.4127    3.7009 H       1  LIG1        0.0000
     66 H          -7.3496    6.5142    5.4860 H       1  LIG1        0.0000
     67 H          -7.9691    7.9292    4.9562 H       1  LIG1        0.0000
     68 H          -8.8938    6.5833    4.9595 H       1  LIG1        0.0000
     69 H          -1.9091    4.2223    1.8087 H       1  LIG1        0.0000
     70 H          -2.0558    5.3319    0.6196 H       1  LIG1        0.0000
     71 H          -0.9657    4.0074   -0.8873 H       1  LIG1        0.0000
     72 H          -0.0813    3.8954    0.4810 H       1  LIG1        0.0000
@<TRIPOS>BOND
     1     1     2    1
     2     2     3    1
     3     2     4    2
     4     4     5    1
     5     5     6    1
     6     6     7    1
     7     7     8    1
     8     8     9    1
     9     9    10    1
    10    10    11    1
    11    11    12   ar
    12    12    13   ar
    13    13    14    1
    14    13    15   ar
    15    15    16   ar
    16    16    17    1
    17    16    18   ar
    18    18    11   ar
    19     8    19    2
    20    19    20    1
    21    20    21    2
    22    21     7    1
    23    21    22    1
    24    22    23    1
    25    23    24    1
    26    24    25    1
    27    25    26    1
    28    26    27   am
    29    27    28    2
    30    27    29    1
    31    29    30    1
    32    30    31    2
    33    31    32    1
    34    31    33    1
    35    33    34    1
    36    34    29    2
    37    25    35    1
    38    35    36    1
    39    36    22    1
    40     1    37    1
    41     1    38    1
    42     1    39    1
    43     3    40    1
    44     3    41    1
    45     3    42    1
    46     4    43    1
    47     5    44    1
    48     5    45    1
    49     6    46    1
    50     6    47    1
    51     9    48    1
    52     9    49    1
    53    12    50    1
    54    14    51    1
    55    14    52    1
    56    14    53    1
    57    15    54    1
    58    17    55    1
    59    17    56    1
    60    17    57    1
    61    18    58    1
    62    23    59    1
    63    23    60    1
    64    24    61    1
    65    24    62    1
    66    25    63    1
    67    26    64    1
    68    30    65    1
    69    32    66    1
    70    32    67    1
    71    32    68    1
    72    35    69    1
    73    35    70    1
    74    36    71    1
    75    36    72    1
