@<TRIPOS>MOLECULE
*****
 72 75 0 0 0
SMALL
USER_CHARGES

@<TRIPOS>ATOM
      1 C1         -0.1560   -3.7033    1.2528 C.3     1  LIG1        0.0000
      2 C2         -1.6696   -3.6306    1.3709 C.2     1  LIG1        0.0000
      3 C3         -2.4924   -4.9084    1.3934 C.3     1  LIG1        0.0000
      4 C4         -2.2605   -2.4755    1.4526 C.2     1  LIG1        0.0000
      5 C5         -1.4377   -1.1977    1.4301 C.3     1  LIG1        0.0000
      6 C6         -1.0627   -0.8618   -0.0041 C.3     1  LIG1        0.0000
      7 N7          0.0889    0.0505   -0.0083 N.pl3   1  LIG1        0.0000
      8 C8          1.4004   -0.3102   -0.0301 C.2     1  LIG1        0.0000
      9 C9          1.9531   -1.7256   -0.0595 C.3     1  LIG1        0.0000
     10 O10         2.1460   -2.1861    1.2699 O.2     1  LIG1        0.0000
     11 C11         3.2711   -1.7532    1.8774 C.3     1  LIG1        0.0000
     12 C12         3.5393   -2.1558    3.1811 C.3     1  LIG1        0.0000
     13 C13         4.7010   -1.7033    3.7984 C.3     1  LIG1        0.0000
     14 C14         5.0081   -2.1345    5.2228 C.3     1  LIG1        0.0000
     15 C15         5.5875   -0.8623    3.1347 C.3     1  LIG1        0.0000
     16 C16         5.2958   -0.4751    1.8315 C.3     1  LIG1        0.0000
     17 C17         6.2534    0.4438    1.0908 C.3     1  LIG1        0.0000
     18 C18         4.1414   -0.9126    1.1914 C.3     1  LIG1        0.0000
     19 N19         2.0968    0.8006   -0.0246 N.2     1  LIG1        0.0000
     20 N20         1.2808    1.8391    0.0060 N.2     1  LIG1        0.0000
     21 C21         0.0426    1.4109    0.0126 C.cat   1  LIG1        0.0000
     22 N22        -1.1092    2.2046    0.0325 N.pl3   1  LIG1        0.0000
     23 C23        -2.4206    1.5355    0.0369 C.3     1  LIG1        0.0000
     24 C24        -3.4611    2.3202    0.8238 C.3     1  LIG1        0.0000
     25 C25        -3.4515    3.8059    0.4892 C.3     1  LIG1        0.0000
     26 N26        -4.4258    4.4807    1.3630 N.am    1  LIG1        0.0000
     27 C27        -5.4571    5.1966    0.8145 C.2     1  LIG1        0.0000
     28 O28        -5.5664    5.2737   -0.3780 O.2     1  LIG1        0.0000
     29 C29        -6.4163    5.8609    1.6749 C.2     1  LIG1        0.0000
     30 C30        -6.4189    5.8621    3.0848 C.2     1  LIG1        0.0000
     31 C31        -7.5023    6.6141    3.4147 C.2     1  LIG1        0.0000
     32 C32        -7.9686    6.9379    4.8247 C.3     1  LIG1        0.0000
     33 O33        -8.0782    7.0070    2.3073 O.2     1  LIG1        0.0000
     34 N34        -7.4454    6.5751    1.2930 N.2     1  LIG1        0.0000
     35 C35        -2.0725    4.3547    0.8310 C.3     1  LIG1        0.0000
     36 C36        -0.9568    3.6693    0.0538 C.3     1  LIG1        0.0000
     37 H           0.1287   -4.6605    1.2007 H       1  LIG1        0.0000
     38 H           0.1374   -3.2229    0.4262 H       1  LIG1        0.0000
     39 H           0.2619   -3.2743    2.0537 H       1  LIG1        0.0000
     40 H          -1.8834   -5.6984    1.3218 H       1  LIG1        0.0000
     41 H          -3.0053   -4.9596    2.2503 H       1  LIG1        0.0000
     42 H          -3.1298   -4.9081    0.6229 H       1  LIG1        0.0000
     43 H          -3.2563   -2.4277    1.5303 H       1  LIG1        0.0000
     44 H          -0.6063   -1.3270    1.9705 H       1  LIG1        0.0000
     45 H          -1.9745   -0.4487    1.8184 H       1  LIG1        0.0000
     46 H          -0.8243   -1.7016   -0.4918 H       1  LIG1        0.0000
     47 H          -1.8381   -0.4219   -0.4571 H       1  LIG1        0.0000
     48 H           1.3065   -2.3263   -0.5298 H       1  LIG1        0.0000
     49 H           2.8275   -1.7320   -0.5446 H       1  LIG1        0.0000
     50 H           2.9078   -2.7603    3.6666 H       1  LIG1        0.0000
     51 H           5.8722   -1.7254    5.5159 H       1  LIG1        0.0000
     52 H           4.2729   -1.8307    5.8288 H       1  LIG1        0.0000
     53 H           5.0812   -3.1311    5.2610 H       1  LIG1        0.0000
     54 H           6.4199   -0.5417    3.5867 H       1  LIG1        0.0000
     55 H           7.0277    0.6659    1.6834 H       1  LIG1        0.0000
     56 H           6.5853   -0.0152    0.2667 H       1  LIG1        0.0000
     57 H           5.7773    1.2851    0.8350 H       1  LIG1        0.0000
     58 H           3.9404   -0.6279    0.2541 H       1  LIG1        0.0000
     59 H          -2.3193    0.6303    0.4497 H       1  LIG1        0.0000
     60 H          -2.7361    1.4380   -0.9070 H       1  LIG1        0.0000
     61 H          -4.3664    1.9508    0.6145 H       1  LIG1        0.0000
     62 H          -3.2739    2.2107    1.8000 H       1  LIG1        0.0000
     63 H          -3.6690    3.9578   -0.4750 H       1  LIG1        0.0000
     64 H          -4.3346    4.4164    2.3567 H       1  LIG1        0.0000
     65 H          -5.7720    5.4127    3.7009 H       1  LIG1        0.0000
     66 H          -7.3496    6.5142    5.4860 H       1  LIG1        0.0000
     67 H          -7.9691    7.9292    4.9562 H       1  LIG1        0.0000
     68 H          -8.8938    6.5833    4.9595 H       1  LIG1        0.0000
     69 H          -1.9091    4.2223    1.8087 H       1  LIG1        0.0000
     70 H          -2.0558    5.3319    0.6196 H       1  LIG1        0.0000
     71 H          -0.9657    4.0074   -0.8873 H       1  LIG1        0.0000
     72 H          -0.0813    3.8954    0.4810 H       1  LIG1        0.0000
@<TRIPOS>BOND
     1     1     2    1
     2     2     3    1
     3     2     4    2
     4     4     5    1
     5     5     6    1
     6     6     7    1
     7     7     8    1
     8     8     9    1
     9     9    10    1
    10    10    11    1
    11    11    12   ar
    12    12    13   ar
    13    13    14    1
    14    13    15   ar
    15    15    16   ar
    16    16    17    1
    17    16    18   ar
    18    18    11   ar
    19     8    19    2
    20    19    20    1
    21    20    21    2
    22    21     7    1
    23    21    22    1
    24    22    23    1
    25    23    24    1
    26    24    25    1
    27    25    26    1
    28    26    27   am
    29    27    28    2
    30    27    29    1
    31    29    30    1
    32    30    31    2
    33    31    32    1
    34    31    33    1
    35    33    34    1
    36    34    29    2
    37    25    35    1
    38    35    36    1
    39    36    22    1
    40     1    37    1
    41     1    38    1
    42     1    39    1
    43     3    40    1
    44     3    41    1
    45     3    42    1
    46     4    43    1
    47     5    44    1
    48     5    45    1
    49     6    46    1
    50     6    47    1
    51     9    48    1
    52     9    49    1
    53    12    50    1
    54    14    51    1
    55    14    52    1
    56    14    53    1
    57    15    54    1
    58    17    55    1
    59    17    56    1
    60    17    57    1
    61    18    58    1
    62    23    59    1
    63    23    60    1
    64    24    61    1
    65    24    62    1
    66    25    63    1
    67    26    64    1
    68    30    65    1
    69    32    66    1
    70    32    67    1
    71    32    68    1
    72    35    69    1
    73    35    70    1
    74    36    71    1
    75    36    72    1
