@<TRIPOS>MOLECULE
*****
 72 75 0 0 0
SMALL
USER_CHARGES

@<TRIPOS>ATOM
      1 C1         -3.5625   -0.0286    3.3613 C.3     1  LIG1        0.0000
      2 C2         -4.0659   -0.7350    2.1131 C.2     1  LIG1        0.0000
      3 C3         -5.5498   -1.0189    1.9468 C.3     1  LIG1        0.0000
      4 C4         -3.2273   -1.0962    1.1878 C.2     1  LIG1        0.0000
      5 C5         -1.7433   -0.8123    1.3541 C.3     1  LIG1        0.0000
      6 C6         -1.0627   -0.8618   -0.0041 C.3     1  LIG1        0.0000
      7 N7          0.0889    0.0505   -0.0083 N.pl3   1  LIG1        0.0000
      8 C8          1.4004   -0.3102   -0.0301 C.2     1  LIG1        0.0000
      9 C9          1.9531   -1.7256   -0.0595 C.3     1  LIG1        0.0000
     10 O10         2.1045   -2.1468   -1.4071 O.2     1  LIG1        0.0000
     11 C11         3.3013   -1.8758   -1.9697 C.3     1  LIG1        0.0000
     12 C12         3.5357   -2.2535   -3.2873 C.3     1  LIG1        0.0000
     13 C13         4.7727   -1.9704   -3.8574 C.3     1  LIG1        0.0000
     14 C14         5.0441   -2.3768   -5.2963 C.3     1  LIG1        0.0000
     15 C15         5.7669   -1.3215   -3.1334 C.3     1  LIG1        0.0000
     16 C16         5.5065   -0.9542   -1.8178 C.3     1  LIG1        0.0000
     17 C17         6.5814   -0.2441   -1.0114 C.3     1  LIG1        0.0000
     18 C18         4.2787   -1.2255   -1.2238 C.3     1  LIG1        0.0000
     19 N19         2.0968    0.8006   -0.0246 N.2     1  LIG1        0.0000
     20 N20         1.2808    1.8391    0.0060 N.2     1  LIG1        0.0000
     21 C21         0.0426    1.4109    0.0126 C.cat   1  LIG1        0.0000
     22 N22        -1.1092    2.2046    0.0325 N.pl3   1  LIG1        0.0000
     23 C23        -2.4206    1.5355    0.0369 C.3     1  LIG1        0.0000
     24 C24        -3.4611    2.3202    0.8238 C.3     1  LIG1        0.0000
     25 C25        -3.4515    3.8059    0.4892 C.3     1  LIG1        0.0000
     26 N26        -4.4258    4.4807    1.3630 N.am    1  LIG1        0.0000
     27 C27        -5.4571    5.1966    0.8145 C.2     1  LIG1        0.0000
     28 O28        -5.5664    5.2737   -0.3780 O.2     1  LIG1        0.0000
     29 C29        -6.4163    5.8609    1.6749 C.2     1  LIG1        0.0000
     30 C30        -7.5239    6.6287    1.2607 C.2     1  LIG1        0.0000
     31 C31        -8.1044    7.0291    2.4230 C.2     1  LIG1        0.0000
     32 C32        -9.3501    7.8909    2.5485 C.3     1  LIG1        0.0000
     33 O33        -7.4013    6.5480    3.4164 O.2     1  LIG1        0.0000
     34 N34        -6.4215    5.8631    2.9844 N.2     1  LIG1        0.0000
     35 C35        -2.0725    4.3547    0.8310 C.3     1  LIG1        0.0000
     36 C36        -0.9568    3.6693    0.0538 C.3     1  LIG1        0.0000
     37 H          -4.3346    0.1759    3.9629 H       1  LIG1        0.0000
     38 H          -2.9141   -0.6202    3.8405 H       1  LIG1        0.0000
     39 H          -3.1075    0.8232    3.1017 H       1  LIG1        0.0000
     40 H          -6.0461   -0.6769    2.7447 H       1  LIG1        0.0000
     41 H          -5.8865   -0.5616    1.1237 H       1  LIG1        0.0000
     42 H          -5.6931   -2.0050    1.8625 H       1  LIG1        0.0000
     43 H          -3.5585   -1.5609    0.3666 H       1  LIG1        0.0000
     44 H          -1.3376   -1.5005    1.9555 H       1  LIG1        0.0000
     45 H          -1.6205    0.0953    1.7556 H       1  LIG1        0.0000
     46 H          -0.7500   -1.7940   -0.1865 H       1  LIG1        0.0000
     47 H          -1.7113   -0.5831   -0.7124 H       1  LIG1        0.0000
     48 H           2.8421   -1.7459    0.3980 H       1  LIG1        0.0000
     49 H           1.3212   -2.3401    0.4128 H       1  LIG1        0.0000
     50 H           2.8271   -2.7207   -3.8160 H       1  LIG1        0.0000
     51 H           5.9715   -2.1028   -5.5508 H       1  LIG1        0.0000
     52 H           4.9533   -3.3687   -5.3853 H       1  LIG1        0.0000
     53 H           4.3861   -1.9263   -5.8997 H       1  LIG1        0.0000
     54 H           6.6532   -1.1225   -3.5514 H       1  LIG1        0.0000
     55 H           7.3976   -0.1244   -1.5766 H       1  LIG1        0.0000
     56 H           6.2432    0.6509   -0.7205 H       1  LIG1        0.0000
     57 H           6.8106   -0.7916   -0.2066 H       1  LIG1        0.0000
     58 H           4.1016   -0.9578   -0.2767 H       1  LIG1        0.0000
     59 H          -2.3193    0.6303    0.4497 H       1  LIG1        0.0000
     60 H          -2.7361    1.4380   -0.9070 H       1  LIG1        0.0000
     61 H          -4.3664    1.9508    0.6145 H       1  LIG1        0.0000
     62 H          -3.2739    2.2107    1.8000 H       1  LIG1        0.0000
     63 H          -3.6690    3.9578   -0.4750 H       1  LIG1        0.0000
     64 H          -4.3346    4.4164    2.3567 H       1  LIG1        0.0000
     65 H          -7.8157    6.8322    0.3261 H       1  LIG1        0.0000
     66 H          -9.6895    8.1210    1.6364 H       1  LIG1        0.0000
     67 H         -10.0545    7.3878    3.0492 H       1  LIG1        0.0000
     68 H          -9.1258    8.7310    3.0424 H       1  LIG1        0.0000
     69 H          -1.9091    4.2223    1.8087 H       1  LIG1        0.0000
     70 H          -2.0558    5.3319    0.6196 H       1  LIG1        0.0000
     71 H          -0.9657    4.0074   -0.8873 H       1  LIG1        0.0000
     72 H          -0.0813    3.8954    0.4810 H       1  LIG1        0.0000
@<TRIPOS>BOND
     1     1     2    1
     2     2     3    1
     3     2     4    2
     4     4     5    1
     5     5     6    1
     6     6     7    1
     7     7     8    1
     8     8     9    1
     9     9    10    1
    10    10    11    1
    11    11    12   ar
    12    12    13   ar
    13    13    14    1
    14    13    15   ar
    15    15    16   ar
    16    16    17    1
    17    16    18   ar
    18    18    11   ar
    19     8    19    2
    20    19    20    1
    21    20    21    2
    22    21     7    1
    23    21    22    1
    24    22    23    1
    25    23    24    1
    26    24    25    1
    27    25    26    1
    28    26    27   am
    29    27    28    2
    30    27    29    1
    31    29    30    1
    32    30    31    2
    33    31    32    1
    34    31    33    1
    35    33    34    1
    36    34    29    2
    37    25    35    1
    38    35    36    1
    39    36    22    1
    40     1    37    1
    41     1    38    1
    42     1    39    1
    43     3    40    1
    44     3    41    1
    45     3    42    1
    46     4    43    1
    47     5    44    1
    48     5    45    1
    49     6    46    1
    50     6    47    1
    51     9    48    1
    52     9    49    1
    53    12    50    1
    54    14    51    1
    55    14    52    1
    56    14    53    1
    57    15    54    1
    58    17    55    1
    59    17    56    1
    60    17    57    1
    61    18    58    1
    62    23    59    1
    63    23    60    1
    64    24    61    1
    65    24    62    1
    66    25    63    1
    67    26    64    1
    68    30    65    1
    69    32    66    1
    70    32    67    1
    71    32    68    1
    72    35    69    1
    73    35    70    1
    74    36    71    1
    75    36    72    1
