@<TRIPOS>MOLECULE
*****
 72 75 0 0 0
SMALL
USER_CHARGES

@<TRIPOS>ATOM
      1 C1         -1.6625   -2.6881    3.8135 C.3     1  LIG1        0.0000
      2 C2         -2.3641   -3.1626    2.5513 C.2     1  LIG1        0.0000
      3 C3         -3.1869   -4.4405    2.5739 C.3     1  LIG1        0.0000
      4 C4         -2.2605   -2.4755    1.4526 C.2     1  LIG1        0.0000
      5 C5         -1.4377   -1.1977    1.4301 C.3     1  LIG1        0.0000
      6 C6         -1.0627   -0.8618   -0.0041 C.3     1  LIG1        0.0000
      7 N7          0.0889    0.0505   -0.0083 N.pl3   1  LIG1        0.0000
      8 C8          1.4004   -0.3102   -0.0301 C.2     1  LIG1        0.0000
      9 C9          1.9531   -1.7256   -0.0595 C.3     1  LIG1        0.0000
     10 O10         0.8783   -2.6536   -0.0564 O.2     1  LIG1        0.0000
     11 C11         1.1800   -3.8938   -0.4962 C.3     1  LIG1        0.0000
     12 C12         0.3542   -4.9582   -0.1519 C.3     1  LIG1        0.0000
     13 C13         0.6744   -6.2323   -0.6094 C.3     1  LIG1        0.0000
     14 C14        -0.2183   -7.4058   -0.2416 C.3     1  LIG1        0.0000
     15 C15         1.7983   -6.4520   -1.3981 C.3     1  LIG1        0.0000
     16 C16         2.6072   -5.3703   -1.7284 C.3     1  LIG1        0.0000
     17 C17         3.8397   -5.5917   -2.5897 C.3     1  LIG1        0.0000
     18 C18         2.3100   -4.0865   -1.2839 C.3     1  LIG1        0.0000
     19 N19         2.0968    0.8006   -0.0246 N.2     1  LIG1        0.0000
     20 N20         1.2808    1.8391    0.0060 N.2     1  LIG1        0.0000
     21 C21         0.0426    1.4109    0.0126 C.cat   1  LIG1        0.0000
     22 N22        -1.1092    2.2046    0.0325 N.pl3   1  LIG1        0.0000
     23 C23        -2.4206    1.5355    0.0369 C.3     1  LIG1        0.0000
     24 C24        -3.4611    2.3202    0.8238 C.3     1  LIG1        0.0000
     25 C25        -3.4515    3.8059    0.4892 C.3     1  LIG1        0.0000
     26 N26        -4.4258    4.4807    1.3630 N.am    1  LIG1        0.0000
     27 C27        -5.4571    5.1966    0.8145 C.2     1  LIG1        0.0000
     28 O28        -5.5664    5.2737   -0.3780 O.2     1  LIG1        0.0000
     29 C29        -6.4163    5.8609    1.6749 C.2     1  LIG1        0.0000
     30 C30        -7.7114    6.2871    1.3155 C.2     1  LIG1        0.0000
     31 C31        -8.2060    6.8432    2.4531 C.2     1  LIG1        0.0000
     32 C32        -9.5835    7.4644    2.6175 C.3     1  LIG1        0.0000
     33 O33        -7.2882    6.7561    3.3818 O.2     1  LIG1        0.0000
     34 N34        -6.2476    6.1799    2.9337 N.2     1  LIG1        0.0000
     35 C35        -2.0725    4.3547    0.8310 C.3     1  LIG1        0.0000
     36 C36        -0.9568    3.6693    0.0538 C.3     1  LIG1        0.0000
     37 H          -1.8466   -3.3294    4.5584 H       1  LIG1        0.0000
     38 H          -0.6771   -2.6416    3.6496 H       1  LIG1        0.0000
     39 H          -2.0021   -1.7812    4.0627 H       1  LIG1        0.0000
     40 H          -3.1595   -4.8385    3.4908 H       1  LIG1        0.0000
     41 H          -4.1338   -4.2316    2.3294 H       1  LIG1        0.0000
     42 H          -2.8088   -5.0920    1.9162 H       1  LIG1        0.0000
     43 H          -2.7221   -2.7877    0.6223 H       1  LIG1        0.0000
     44 H          -0.6063   -1.3270    1.9705 H       1  LIG1        0.0000
     45 H          -1.9745   -0.4487    1.8184 H       1  LIG1        0.0000
     46 H          -0.8243   -1.7016   -0.4918 H       1  LIG1        0.0000
     47 H          -1.8381   -0.4219   -0.4571 H       1  LIG1        0.0000
     48 H           2.5007   -1.8525   -0.8865 H       1  LIG1        0.0000
     49 H           2.5261   -1.8765    0.7461 H       1  LIG1        0.0000
     50 H          -0.4562   -4.8103    0.4151 H       1  LIG1        0.0000
     51 H           0.1486   -8.2434   -0.6463 H       1  LIG1        0.0000
     52 H          -0.2493   -7.5021    0.7533 H       1  LIG1        0.0000
     53 H          -1.1417   -7.2441   -0.5897 H       1  LIG1        0.0000
     54 H           2.0209   -7.3715   -1.7221 H       1  LIG1        0.0000
     55 H           3.9124   -6.5610   -2.8245 H       1  LIG1        0.0000
     56 H           3.7627   -5.0507   -3.4271 H       1  LIG1        0.0000
     57 H           4.6548   -5.3091   -2.0840 H       1  LIG1        0.0000
     58 H           2.8985   -3.3152   -1.5265 H       1  LIG1        0.0000
     59 H          -2.3193    0.6303    0.4497 H       1  LIG1        0.0000
     60 H          -2.7361    1.4380   -0.9070 H       1  LIG1        0.0000
     61 H          -4.3664    1.9508    0.6145 H       1  LIG1        0.0000
     62 H          -3.2739    2.2107    1.8000 H       1  LIG1        0.0000
     63 H          -3.6690    3.9578   -0.4750 H       1  LIG1        0.0000
     64 H          -4.3346    4.4164    2.3567 H       1  LIG1        0.0000
     65 H          -8.1626    6.2001    0.4274 H       1  LIG1        0.0000
     66 H         -10.0837    7.3995    1.7540 H       1  LIG1        0.0000
     67 H         -10.0861    6.9767    3.3314 H       1  LIG1        0.0000
     68 H          -9.4870    8.4258    2.8753 H       1  LIG1        0.0000
     69 H          -1.9091    4.2223    1.8087 H       1  LIG1        0.0000
     70 H          -2.0558    5.3319    0.6196 H       1  LIG1        0.0000
     71 H          -0.9657    4.0074   -0.8873 H       1  LIG1        0.0000
     72 H          -0.0813    3.8954    0.4810 H       1  LIG1        0.0000
@<TRIPOS>BOND
     1     1     2    1
     2     2     3    1
     3     2     4    2
     4     4     5    1
     5     5     6    1
     6     6     7    1
     7     7     8    1
     8     8     9    1
     9     9    10    1
    10    10    11    1
    11    11    12   ar
    12    12    13   ar
    13    13    14    1
    14    13    15   ar
    15    15    16   ar
    16    16    17    1
    17    16    18   ar
    18    18    11   ar
    19     8    19    2
    20    19    20    1
    21    20    21    2
    22    21     7    1
    23    21    22    1
    24    22    23    1
    25    23    24    1
    26    24    25    1
    27    25    26    1
    28    26    27   am
    29    27    28    2
    30    27    29    1
    31    29    30    1
    32    30    31    2
    33    31    32    1
    34    31    33    1
    35    33    34    1
    36    34    29    2
    37    25    35    1
    38    35    36    1
    39    36    22    1
    40     1    37    1
    41     1    38    1
    42     1    39    1
    43     3    40    1
    44     3    41    1
    45     3    42    1
    46     4    43    1
    47     5    44    1
    48     5    45    1
    49     6    46    1
    50     6    47    1
    51     9    48    1
    52     9    49    1
    53    12    50    1
    54    14    51    1
    55    14    52    1
    56    14    53    1
    57    15    54    1
    58    17    55    1
    59    17    56    1
    60    17    57    1
    61    18    58    1
    62    23    59    1
    63    23    60    1
    64    24    61    1
    65    24    62    1
    66    25    63    1
    67    26    64    1
    68    30    65    1
    69    32    66    1
    70    32    67    1
    71    32    68    1
    72    35    69    1
    73    35    70    1
    74    36    71    1
    75    36    72    1
