@<TRIPOS>MOLECULE
*****
 72 75 0 0 0
SMALL
USER_CHARGES

@<TRIPOS>ATOM
      1 C1         -2.6481   -3.4687    1.0759 C.3     1  LIG1        0.0000
      2 C2         -3.6444   -2.3208    1.0596 C.2     1  LIG1        0.0000
      3 C3         -5.1283   -2.6047    0.8932 C.3     1  LIG1        0.0000
      4 C4         -3.2273   -1.0962    1.1878 C.2     1  LIG1        0.0000
      5 C5         -1.7433   -0.8123    1.3541 C.3     1  LIG1        0.0000
      6 C6         -1.0627   -0.8618   -0.0041 C.3     1  LIG1        0.0000
      7 N7          0.0889    0.0505   -0.0083 N.pl3   1  LIG1        0.0000
      8 C8          1.4004   -0.3102   -0.0301 C.2     1  LIG1        0.0000
      9 C9          1.9531   -1.7256   -0.0595 C.3     1  LIG1        0.0000
     10 O10         2.1045   -2.1468   -1.4071 O.2     1  LIG1        0.0000
     11 C11         1.1225   -2.9426   -1.8811 C.3     1  LIG1        0.0000
     12 C12         0.9476   -3.0638   -3.2552 C.3     1  LIG1        0.0000
     13 C13        -0.0678   -3.8858   -3.7334 C.3     1  LIG1        0.0000
     14 C14        -0.2715   -4.0286   -5.2325 C.3     1  LIG1        0.0000
     15 C15        -0.9012   -4.5799   -2.8631 C.3     1  LIG1        0.0000
     16 C16        -0.7047   -4.4414   -1.4936 C.3     1  LIG1        0.0000
     17 C17        -1.6061   -5.1926   -0.5276 C.3     1  LIG1        0.0000
     18 C18         0.3027   -3.6261   -0.9893 C.3     1  LIG1        0.0000
     19 N19         2.0968    0.8006   -0.0246 N.2     1  LIG1        0.0000
     20 N20         1.2808    1.8391    0.0060 N.2     1  LIG1        0.0000
     21 C21         0.0426    1.4109    0.0126 C.cat   1  LIG1        0.0000
     22 N22        -1.1092    2.2046    0.0325 N.pl3   1  LIG1        0.0000
     23 C23        -2.4206    1.5355    0.0369 C.3     1  LIG1        0.0000
     24 C24        -3.4611    2.3202    0.8238 C.3     1  LIG1        0.0000
     25 C25        -3.4515    3.8059    0.4892 C.3     1  LIG1        0.0000
     26 N26        -4.4258    4.4807    1.3630 N.am    1  LIG1        0.0000
     27 C27        -5.4571    5.1966    0.8145 C.2     1  LIG1        0.0000
     28 O28        -5.5664    5.2737   -0.3780 O.2     1  LIG1        0.0000
     29 C29        -6.4163    5.8609    1.6749 C.2     1  LIG1        0.0000
     30 C30        -7.5239    6.6287    1.2607 C.2     1  LIG1        0.0000
     31 C31        -8.1044    7.0291    2.4230 C.2     1  LIG1        0.0000
     32 C32        -9.3501    7.8909    2.5485 C.3     1  LIG1        0.0000
     33 O33        -7.4013    6.5480    3.4164 O.2     1  LIG1        0.0000
     34 N34        -6.4215    5.8631    2.9844 N.2     1  LIG1        0.0000
     35 C35        -2.0725    4.3547    0.8310 C.3     1  LIG1        0.0000
     36 C36        -0.9568    3.6693    0.0538 C.3     1  LIG1        0.0000
     37 H          -3.1357   -4.3348    0.9663 H       1  LIG1        0.0000
     38 H          -1.9968   -3.3555    0.3256 H       1  LIG1        0.0000
     39 H          -2.1564   -3.4709    1.9467 H       1  LIG1        0.0000
     40 H          -5.2716   -3.5908    0.8090 H       1  LIG1        0.0000
     41 H          -5.6246   -2.2628    1.6912 H       1  LIG1        0.0000
     42 H          -5.4650   -2.1474    0.0701 H       1  LIG1        0.0000
     43 H          -3.8827   -0.3410    1.1770 H       1  LIG1        0.0000
     44 H          -1.3376   -1.5005    1.9555 H       1  LIG1        0.0000
     45 H          -1.6205    0.0953    1.7556 H       1  LIG1        0.0000
     46 H          -0.7500   -1.7940   -0.1865 H       1  LIG1        0.0000
     47 H          -1.7113   -0.5831   -0.7124 H       1  LIG1        0.0000
     48 H           2.8421   -1.7459    0.3980 H       1  LIG1        0.0000
     49 H           1.3212   -2.3401    0.4128 H       1  LIG1        0.0000
     50 H           1.5418   -2.5686   -3.8890 H       1  LIG1        0.0000
     51 H          -1.0354   -4.6498   -5.4074 H       1  LIG1        0.0000
     52 H          -0.4731   -3.1326   -5.6283 H       1  LIG1        0.0000
     53 H           0.5599   -4.3973   -5.6482 H       1  LIG1        0.0000
     54 H          -1.6289   -5.1681   -3.2160 H       1  LIG1        0.0000
     55 H          -2.2733   -5.7299   -1.0436 H       1  LIG1        0.0000
     56 H          -1.0525   -5.8034    0.0384 H       1  LIG1        0.0000
     57 H          -2.0856   -4.5389    0.0578 H       1  LIG1        0.0000
     58 H           0.4354   -3.5328   -0.0025 H       1  LIG1        0.0000
     59 H          -2.3193    0.6303    0.4497 H       1  LIG1        0.0000
     60 H          -2.7361    1.4380   -0.9070 H       1  LIG1        0.0000
     61 H          -4.3664    1.9508    0.6145 H       1  LIG1        0.0000
     62 H          -3.2739    2.2107    1.8000 H       1  LIG1        0.0000
     63 H          -3.6690    3.9578   -0.4750 H       1  LIG1        0.0000
     64 H          -4.3346    4.4164    2.3567 H       1  LIG1        0.0000
     65 H          -7.8157    6.8322    0.3261 H       1  LIG1        0.0000
     66 H          -9.6895    8.1210    1.6364 H       1  LIG1        0.0000
     67 H         -10.0545    7.3878    3.0492 H       1  LIG1        0.0000
     68 H          -9.1258    8.7310    3.0424 H       1  LIG1        0.0000
     69 H          -1.9091    4.2223    1.8087 H       1  LIG1        0.0000
     70 H          -2.0558    5.3319    0.6196 H       1  LIG1        0.0000
     71 H          -0.9657    4.0074   -0.8873 H       1  LIG1        0.0000
     72 H          -0.0813    3.8954    0.4810 H       1  LIG1        0.0000
@<TRIPOS>BOND
     1     1     2    1
     2     2     3    1
     3     2     4    2
     4     4     5    1
     5     5     6    1
     6     6     7    1
     7     7     8    1
     8     8     9    1
     9     9    10    1
    10    10    11    1
    11    11    12   ar
    12    12    13   ar
    13    13    14    1
    14    13    15   ar
    15    15    16   ar
    16    16    17    1
    17    16    18   ar
    18    18    11   ar
    19     8    19    2
    20    19    20    1
    21    20    21    2
    22    21     7    1
    23    21    22    1
    24    22    23    1
    25    23    24    1
    26    24    25    1
    27    25    26    1
    28    26    27   am
    29    27    28    2
    30    27    29    1
    31    29    30    1
    32    30    31    2
    33    31    32    1
    34    31    33    1
    35    33    34    1
    36    34    29    2
    37    25    35    1
    38    35    36    1
    39    36    22    1
    40     1    37    1
    41     1    38    1
    42     1    39    1
    43     3    40    1
    44     3    41    1
    45     3    42    1
    46     4    43    1
    47     5    44    1
    48     5    45    1
    49     6    46    1
    50     6    47    1
    51     9    48    1
    52     9    49    1
    53    12    50    1
    54    14    51    1
    55    14    52    1
    56    14    53    1
    57    15    54    1
    58    17    55    1
    59    17    56    1
    60    17    57    1
    61    18    58    1
    62    23    59    1
    63    23    60    1
    64    24    61    1
    65    24    62    1
    66    25    63    1
    67    26    64    1
    68    30    65    1
    69    32    66    1
    70    32    67    1
    71    32    68    1
    72    35    69    1
    73    35    70    1
    74    36    71    1
    75    36    72    1
