@<TRIPOS>MOLECULE

  33   35
SMALL
USER_CHARGES
@<TRIPOS>ATOM
   1 C1           0.4630     3.7645     5.5358 C.3          1    LIG   0.0000
   2 N2           1.6657     4.2123     4.8131 N.pl3        1    LIG   0.0000
   3 C3           2.2908     5.4121     5.2211 C.ar         1    LIG   0.0000
   4 C4           1.6148     6.5025     5.7649 C.ar         1    LIG   0.0000
   5 C5           2.2718     7.6659     6.1477 C.ar         1    LIG   0.0000
   6 C6           3.6485     7.7717     5.9879 C.ar         1    LIG   0.0000
   7 C7           4.3782     6.7207     5.4528 C.ar         1    LIG   0.0000
   8 C8           3.6640     5.5859     5.1049 C.ar         1    LIG   0.0000
   9 S9           4.5855     4.2672     4.4693 S.3          1    LIG   0.0000
  10 C10          3.5127     3.3656     3.4490 C.ar         1    LIG   0.0000
  11 C11          4.0907     2.6597     2.4077 C.ar         1    LIG   0.0000
  12 C12          3.2416     1.9032     1.6112 C.ar         1    LIG   0.0000
  13 C13          1.8774     1.8774     1.8774 C.ar         1    LIG   0.0000
  14 C14          1.0000     1.0000     1.0000 C.3          1    LIG   0.0000
  15 C15          0.9112    -0.3922     1.6035 C.3          1    LIG   0.0000
  16 O16          0.0914    -1.2121     0.7836 O.3          1    LIG   0.0000
  17 C17          1.3566     2.6349     2.9255 C.ar         1    LIG   0.0000
  18 C18          2.1600     3.4217     3.7521 C.ar         1    LIG   0.0000
  19 H            0.2398     4.4249     6.2528 H            1    LIG   0.0000
  20 H           -0.3031     3.6945     4.8969 H            1    LIG   0.0000
  21 H            0.6357     2.8702     5.9484 H            1    LIG   0.0000
  22 H            0.6235     6.4460     5.8838 H            1    LIG   0.0000
  23 H            1.7539     8.4271     6.5381 H            1    LIG   0.0000
  24 H            4.1165     8.6122     6.2610 H            1    LIG   0.0000
  25 H            5.3683     6.7791     5.3247 H            1    LIG   0.0000
  26 H            5.0754     2.6931     2.2370 H            1    LIG   0.0000
  27 H            3.6115     1.3768     0.8457 H            1    LIG   0.0000
  28 H            1.3970     0.9416     0.0840 H            1    LIG   0.0000
  29 H            0.0840     1.3970     0.9416 H            1    LIG   0.0000
  30 H            1.8272    -0.7893     1.6619 H            1    LIG   0.0000
  31 H            0.5142    -0.3338     2.5194 H            1    LIG   0.0000
  32 H            0.0330    -2.1280     1.1806 H            1    LIG   0.0000
  33 H            0.3707     2.6136     3.0912 H            1    LIG   0.0000
@<TRIPOS>BOND
   1        1        2 1
   2        2        3 1
   3        3        4 ar
   4        4        5 ar
   5        5        6 ar
   6        6        7 ar
   7        7        8 ar
   8        8        3 ar
   9        8        9 1
  10        9       10 1
  11       10       11 ar
  12       11       12 ar
  13       12       13 ar
  14       13       14 1
  15       14       15 1
  16       15       16 1
  17       13       17 ar
  18       17       18 ar
  19       18       10 ar
  20       18        2 1
  21        1       19 1
  22        1       20 1
  23        1       21 1
  24        4       22 1
  25        5       23 1
  26        6       24 1
  27        7       25 1
  28       11       26 1
  29       12       27 1
  30       14       28 1
  31       14       29 1
  32       15       30 1
  33       15       31 1
  34       16       32 1
  35       17       33 1

@<TRIPOS>MOLECULE

  33   35
SMALL
USER_CHARGES
@<TRIPOS>ATOM
   1 C1           6.0459     2.7444     0.9731 C.3          1    LIG   0.0000
   2 N2           5.4617     2.9151     2.3143 N.pl3        1    LIG   0.0000
   3 C3           6.3252     3.2039     3.3949 C.ar         1    LIG   0.0000
   4 C4           7.6400     2.7523     3.4899 C.ar         1    LIG   0.0000
   5 C5           8.4518     3.0577     4.5759 C.ar         1    LIG   0.0000
   6 C6           7.9569     3.8337     5.6175 C.ar         1    LIG   0.0000
   7 C7           6.6562     4.3138     5.5817 C.ar         1    LIG   0.0000
   8 C8           5.9059     3.9840     4.4650 C.ar         1    LIG   0.0000
   9 S9           4.2958     4.6141     4.4121 S.3          1    LIG   0.0000
  10 C10          3.3722     3.5193     3.4359 C.ar         1    LIG   0.0000
  11 C11          2.0147     3.4457     3.6976 C.ar         1    LIG   0.0000
  12 C12          1.2624     2.6008     2.8928 C.ar         1    LIG   0.0000
  13 C13          1.8774     1.8774     1.8774 C.ar         1    LIG   0.0000
  14 C14          1.0000     1.0000     1.0000 C.3          1    LIG   0.0000
  15 C15          0.9112    -0.3922     1.6035 C.3          1    LIG   0.0000
  16 O16          0.0914    -1.2121     0.7836 O.3          1    LIG   0.0000
  17 C17          3.2547     1.9765     1.6858 C.ar         1    LIG   0.0000
  18 C18          4.0626     2.8008     2.4704 C.ar         1    LIG   0.0000
  19 H            7.0386     2.8534     1.0255 H            1    LIG   0.0000
  20 H            5.8286     1.8310     0.6287 H            1    LIG   0.0000
  21 H            5.6672     3.4327     0.3544 H            1    LIG   0.0000
  22 H            8.0120     2.1895     2.7517 H            1    LIG   0.0000
  23 H            9.3921     2.7190     4.6080 H            1    LIG   0.0000
  24 H            8.5433     4.0476     6.3987 H            1    LIG   0.0000
  25 H            6.2798     4.8690     6.3233 H            1    LIG   0.0000
  26 H            1.5949     3.9772     4.4333 H            1    LIG   0.0000
  27 H            0.2778     2.5125     3.0436 H            1    LIG   0.0000
  28 H            1.3970     0.9416     0.0840 H            1    LIG   0.0000
  29 H            0.0840     1.3970     0.9416 H            1    LIG   0.0000
  30 H            1.8272    -0.7893     1.6619 H            1    LIG   0.0000
  31 H            0.5142    -0.3338     2.5194 H            1    LIG   0.0000
  32 H            0.0330    -2.1280     1.1806 H            1    LIG   0.0000
  33 H            3.6797     1.4367     0.9591 H            1    LIG   0.0000
@<TRIPOS>BOND
   1        1        2 1
   2        2        3 1
   3        3        4 ar
   4        4        5 ar
   5        5        6 ar
   6        6        7 ar
   7        7        8 ar
   8        8        3 ar
   9        8        9 1
  10        9       10 1
  11       10       11 ar
  12       11       12 ar
  13       12       13 ar
  14       13       14 1
  15       14       15 1
  16       15       16 1
  17       13       17 ar
  18       17       18 ar
  19       18       10 ar
  20       18        2 1
  21        1       19 1
  22        1       20 1
  23        1       21 1
  24        4       22 1
  25        5       23 1
  26        6       24 1
  27        7       25 1
  28       11       26 1
  29       12       27 1
  30       14       28 1
  31       14       29 1
  32       15       30 1
  33       15       31 1
  34       16       32 1
  35       17       33 1

@<TRIPOS>MOLECULE

  33   35
SMALL
USER_CHARGES
@<TRIPOS>ATOM
   1 C1           4.2654     5.1702     0.3278 C.3          1    LIG   0.0000
   2 N2           4.5180     4.5388     1.6343 N.pl3        1    LIG   0.0000
   3 C3           5.6891     4.8943     2.3406 C.ar         1    LIG   0.0000
   4 C4           6.8901     5.2576     1.7345 C.ar         1    LIG   0.0000
   5 C5           8.0195     5.5950     2.4710 C.ar         1    LIG   0.0000
   6 C6           7.9763     5.5718     3.8600 C.ar         1    LIG   0.0000
   7 C7           6.8101     5.2189     4.5227 C.ar         1    LIG   0.0000
   8 C8           5.7182     4.9073     3.7293 C.ar         1    LIG   0.0000
   9 S9           4.2582     4.5007     4.5631 S.3          1    LIG   0.0000
  10 C10          3.3604     3.4637     3.5033 C.ar         1    LIG   0.0000
  11 C11          2.4969     2.5610     4.1001 C.ar         1    LIG   0.0000
  12 C12          1.7451     1.7551     3.2559 C.ar         1    LIG   0.0000
  13 C13          1.8774     1.8774     1.8774 C.ar         1    LIG   0.0000
  14 C14          1.0000     1.0000     1.0000 C.3          1    LIG   0.0000
  15 C15          0.9112    -0.3922     1.6035 C.3          1    LIG   0.0000
  16 O16         -0.3407    -0.9736     1.2702 O.3          1    LIG   0.0000
  17 C17          2.7872     2.7880     1.3419 C.ar         1    LIG   0.0000
  18 C18          3.5766     3.6159     2.1413 C.ar         1    LIG   0.0000
  19 H            5.0158     5.7935     0.1081 H            1    LIG   0.0000
  20 H            4.2017     4.4637    -0.3770 H            1    LIG   0.0000
  21 H            3.4071     5.6819     0.3653 H            1    LIG   0.0000
  22 H            6.9410     5.2763     0.7360 H            1    LIG   0.0000
  23 H            8.8634     5.8544     2.0013 H            1    LIG   0.0000
  24 H            8.7925     5.8114     4.3858 H            1    LIG   0.0000
  25 H            6.7602     5.1909     5.5210 H            1    LIG   0.0000
  26 H            2.4183     2.4925     5.0947 H            1    LIG   0.0000
  27 H            1.1081     1.0864     3.6394 H            1    LIG   0.0000
  28 H            1.3970     0.9416     0.0840 H            1    LIG   0.0000
  29 H            0.0840     1.3970     0.9416 H            1    LIG   0.0000
  30 H            1.6498    -0.9605     1.2407 H            1    LIG   0.0000
  31 H            0.9959    -0.3305     2.5980 H            1    LIG   0.0000
  32 H           -0.3991    -1.8896     1.6672 H            1    LIG   0.0000
  33 H            2.8774     2.8502     0.3479 H            1    LIG   0.0000
@<TRIPOS>BOND
   1        1        2 1
   2        2        3 1
   3        3        4 ar
   4        4        5 ar
   5        5        6 ar
   6        6        7 ar
   7        7        8 ar
   8        8        3 ar
   9        8        9 1
  10        9       10 1
  11       10       11 ar
  12       11       12 ar
  13       12       13 ar
  14       13       14 1
  15       14       15 1
  16       15       16 1
  17       13       17 ar
  18       17       18 ar
  19       18       10 ar
  20       18        2 1
  21        1       19 1
  22        1       20 1
  23        1       21 1
  24        4       22 1
  25        5       23 1
  26        6       24 1
  27        7       25 1
  28       11       26 1
  29       12       27 1
  30       14       28 1
  31       14       29 1
  32       15       30 1
  33       15       31 1
  34       16       32 1
  35       17       33 1

@<TRIPOS>MOLECULE

  33   35
SMALL
USER_CHARGES
@<TRIPOS>ATOM
   1 C1           5.8322     0.6830     3.2482 C.3          1    LIG   0.0000
   2 N2           5.0495     1.7548     3.8869 N.pl3        1    LIG   0.0000
   3 C3           5.5202     2.3023     5.1015 C.ar         1    LIG   0.0000
   4 C4           6.2377     1.5866     6.0579 C.ar         1    LIG   0.0000
   5 C5           6.6765     2.1665     7.2423 C.ar         1    LIG   0.0000
   6 C6           6.3985     3.5024     7.5072 C.ar         1    LIG   0.0000
   7 C7           5.6886     4.2684     6.5947 C.ar         1    LIG   0.0000
   8 C8           5.2927     3.6328     5.4293 C.ar         1    LIG   0.0000
   9 S9           4.4369     4.6036     4.2815 S.3          1    LIG   0.0000
  10 C10          3.4342     3.5200     3.3732 C.ar         1    LIG   0.0000
  11 C11          2.2741     4.0496     2.8344 C.ar         1    LIG   0.0000
  12 C12          1.4867     3.1973     2.0720 C.ar         1    LIG   0.0000
  13 C13          1.8774     1.8774     1.8774 C.ar         1    LIG   0.0000
  14 C14          1.0000     1.0000     1.0000 C.3          1    LIG   0.0000
  15 C15          0.9112    -0.3922     1.6035 C.3          1    LIG   0.0000
  16 O16          0.5073    -1.3165     0.6039 O.3          1    LIG   0.0000
  17 C17          3.0443     1.4002     2.4726 C.ar         1    LIG   0.0000
  18 C18          3.8689     2.2075     3.2574 C.ar         1    LIG   0.0000
  19 H            6.6327     0.4747     3.8101 H            1    LIG   0.0000
  20 H            5.2652    -0.1360     3.1591 H            1    LIG   0.0000
  21 H            6.1300     0.9825     2.3418 H            1    LIG   0.0000
  22 H            6.4438     0.6232     5.8863 H            1    LIG   0.0000
  23 H            7.1925     1.6226     7.9041 H            1    LIG   0.0000
  24 H            6.7128     3.9144     8.3625 H            1    LIG   0.0000
  25 H            5.4737     5.2294     6.7689 H            1    LIG   0.0000
  26 H            2.0148     5.0032     2.9874 H            1    LIG   0.0000
  27 H            0.6383     3.5329     1.6627 H            1    LIG   0.0000
  28 H            1.3970     0.9416     0.0840 H            1    LIG   0.0000
  29 H            0.0840     1.3970     0.9416 H            1    LIG   0.0000
  30 H            1.8064    -0.6582     1.9612 H            1    LIG   0.0000
  31 H            0.2421    -0.3914     2.3466 H            1    LIG   0.0000
  32 H            0.4489    -2.2324     1.0010 H            1    LIG   0.0000
  33 H            3.2999     0.4437     2.3319 H            1    LIG   0.0000
@<TRIPOS>BOND
   1        1        2 1
   2        2        3 1
   3        3        4 ar
   4        4        5 ar
   5        5        6 ar
   6        6        7 ar
   7        7        8 ar
   8        8        3 ar
   9        8        9 1
  10        9       10 1
  11       10       11 ar
  12       11       12 ar
  13       12       13 ar
  14       13       14 1
  15       14       15 1
  16       15       16 1
  17       13       17 ar
  18       17       18 ar
  19       18       10 ar
  20       18        2 1
  21        1       19 1
  22        1       20 1
  23        1       21 1
  24        4       22 1
  25        5       23 1
  26        6       24 1
  27        7       25 1
  28       11       26 1
  29       12       27 1
  30       14       28 1
  31       14       29 1
  32       15       30 1
  33       15       31 1
  34       16       32 1
  35       17       33 1

@<TRIPOS>MOLECULE

  33   35
SMALL
USER_CHARGES
@<TRIPOS>ATOM
   1 C1           0.2384     4.7126     4.7362 C.3          1    LIG   0.0000
   2 N2           1.6225     4.2136     4.7907 N.pl3        1    LIG   0.0000
   3 C3           2.4068     4.4954     5.9291 C.ar         1    LIG   0.0000
   4 C4           1.8979     4.6273     7.2187 C.ar         1    LIG   0.0000
   5 C5           2.7146     4.9004     8.3103 C.ar         1    LIG   0.0000
   6 C6           4.0875     5.0360     8.1263 C.ar         1    LIG   0.0000
   7 C7           4.6525     4.9163     6.8655 C.ar         1    LIG   0.0000
   8 C8           3.7774     4.6594     5.8248 C.ar         1    LIG   0.0000
   9 S9           4.4951     4.5324     4.2594 S.3          1    LIG   0.0000
  10 C10          3.4568     3.4843     3.3603 C.ar         1    LIG   0.0000
  11 C11          4.0656     2.7510     2.3548 C.ar         1    LIG   0.0000
  12 C12          3.2389     1.9269     1.6080 C.ar         1    LIG   0.0000
  13 C13          1.8770     1.8770     1.8770 C.ar         1    LIG   0.0000
  14 C14          1.0000     1.0000     1.0000 C.3          1    LIG   0.0000
  15 C15          0.9112    -0.3922     1.6035 C.3          1    LIG   0.0000
  16 O16          0.0914    -1.2121     0.7836 O.3          1    LIG   0.0000
  17 C17          1.3316     2.6225     2.9160 C.ar         1    LIG   0.0000
  18 C18          2.1167     3.4543     3.7098 C.ar         1    LIG   0.0000
  19 H            0.0372     5.2290     5.5686 H            1    LIG   0.0000
  20 H            0.1299     5.3081     3.9401 H            1    LIG   0.0000
  21 H           -0.3919     3.9398     4.6627 H            1    LIG   0.0000
  22 H            0.9141     4.5223     7.3643 H            1    LIG   0.0000
  23 H            2.3177     4.9989     9.2228 H            1    LIG   0.0000
  24 H            4.6745     5.2224     8.9141 H            1    LIG   0.0000
  25 H            5.6369     5.0103     6.7168 H            1    LIG   0.0000
  26 H            5.0478     2.8130     2.1777 H            1    LIG   0.0000
  27 H            3.6235     1.3671     0.8740 H            1    LIG   0.0000
  28 H            1.3970     0.9416     0.0840 H            1    LIG   0.0000
  29 H            0.0840     1.3970     0.9416 H            1    LIG   0.0000
  30 H            1.8272    -0.7893     1.6619 H            1    LIG   0.0000
  31 H            0.5142    -0.3338     2.5194 H            1    LIG   0.0000
  32 H            0.0330    -2.1280     1.1806 H            1    LIG   0.0000
  33 H            0.3502     2.5596     3.0979 H            1    LIG   0.0000
@<TRIPOS>BOND
   1        1        2 1
   2        2        3 1
   3        3        4 ar
   4        4        5 ar
   5        5        6 ar
   6        6        7 ar
   7        7        8 ar
   8        8        3 ar
   9        8        9 1
  10        9       10 1
  11       10       11 ar
  12       11       12 ar
  13       12       13 ar
  14       13       14 1
  15       14       15 1
  16       15       16 1
  17       13       17 ar
  18       17       18 ar
  19       18       10 ar
  20       18        2 1
  21        1       19 1
  22        1       20 1
  23        1       21 1
  24        4       22 1
  25        5       23 1
  26        6       24 1
  27        7       25 1
  28       11       26 1
  29       12       27 1
  30       14       28 1
  31       14       29 1
  32       15       30 1
  33       15       31 1
  34       16       32 1
  35       17       33 1

@<TRIPOS>MOLECULE

  33   35
SMALL
USER_CHARGES
@<TRIPOS>ATOM
   1 C1           1.3171     2.1934     6.1766 C.3          1    LIG   0.0000
   2 N2           2.5635     2.5726     5.4907 N.pl3        1    LIG   0.0000
   3 C3           3.7090     2.8596     6.2627 C.ar         1    LIG   0.0000
   4 C4           4.0025     2.2576     7.4838 C.ar         1    LIG   0.0000
   5 C5           5.1493     2.5713     8.2047 C.ar         1    LIG   0.0000
   6 C6           6.0481     3.5048     7.6970 C.ar         1    LIG   0.0000
   7 C7           5.8095     4.1382     6.4866 C.ar         1    LIG   0.0000
   8 C8           4.6417     3.7876     5.8323 C.ar         1    LIG   0.0000
   9 S9           4.3507     4.5997     4.3364 S.3          1    LIG   0.0000
  10 C10          3.3937     3.5089     3.3987 C.ar         1    LIG   0.0000
  11 C11          3.5301     3.6170     2.0243 C.ar         1    LIG   0.0000
  12 C12          2.7474     2.7665     1.2599 C.ar         1    LIG   0.0000
  13 C13          1.8770     1.8770     1.8770 C.ar         1    LIG   0.0000
  14 C14          1.0000     1.0000     1.0000 C.3          1    LIG   0.0000
  15 C15          0.9112    -0.3922     1.6035 C.3          1    LIG   0.0000
  16 O16         -0.2290    -1.0611     1.0849 O.3          1    LIG   0.0000
  17 C17          1.8037     1.8029     3.2633 C.ar         1    LIG   0.0000
  18 C18          2.5787     2.6209     4.0813 C.ar         1    LIG   0.0000
  19 H            1.4642     2.2048     7.1657 H            1    LIG   0.0000
  20 H            0.5951     2.8435     5.9395 H            1    LIG   0.0000
  21 H            1.0454     1.2745     5.8906 H            1    LIG   0.0000
  22 H            3.3687     1.5783     7.8536 H            1    LIG   0.0000
  23 H            5.3273     2.1286     9.0835 H            1    LIG   0.0000
  24 H            6.8773     3.7217     8.2121 H            1    LIG   0.0000
  25 H            6.4456     4.8105     6.1079 H            1    LIG   0.0000
  26 H            4.1590     4.2729     1.6067 H            1    LIG   0.0000
  27 H            2.8094     2.7931     0.2622 H            1    LIG   0.0000
  28 H            1.3970     0.9416     0.0840 H            1    LIG   0.0000
  29 H            0.0840     1.3970     0.9416 H            1    LIG   0.0000
  30 H            1.7351    -0.9093     1.3715 H            1    LIG   0.0000
  31 H            0.8318    -0.3202     2.5977 H            1    LIG   0.0000
  32 H           -0.2874    -1.9770     1.4819 H            1    LIG   0.0000
  33 H            1.1785     1.1455     3.6838 H            1    LIG   0.0000
@<TRIPOS>BOND
   1        1        2 1
   2        2        3 1
   3        3        4 ar
   4        4        5 ar
   5        5        6 ar
   6        6        7 ar
   7        7        8 ar
   8        8        3 ar
   9        8        9 1
  10        9       10 1
  11       10       11 ar
  12       11       12 ar
  13       12       13 ar
  14       13       14 1
  15       14       15 1
  16       15       16 1
  17       13       17 ar
  18       17       18 ar
  19       18       10 ar
  20       18        2 1
  21        1       19 1
  22        1       20 1
  23        1       21 1
  24        4       22 1
  25        5       23 1
  26        6       24 1
  27        7       25 1
  28       11       26 1
  29       12       27 1
  30       14       28 1
  31       14       29 1
  32       15       30 1
  33       15       31 1
  34       16       32 1
  35       17       33 1

@<TRIPOS>MOLECULE

  33   35
SMALL
USER_CHARGES
@<TRIPOS>ATOM
   1 C1           1.2963     6.1719     2.2190 C.3          1    LIG   0.0000
   2 N2           2.0530     5.3750     3.1988 N.pl3        1    LIG   0.0000
   3 C3           2.4408     5.9752     4.4152 C.ar         1    LIG   0.0000
   4 C4           1.7103     6.9642     5.0694 C.ar         1    LIG   0.0000
   5 C5           2.1331     7.5210     6.2713 C.ar         1    LIG   0.0000
   6 C6           3.3146     7.0774     6.8579 C.ar         1    LIG   0.0000
   7 C7           4.0853     6.0957     6.2532 C.ar         1    LIG   0.0000
   8 C8           3.6108     5.5986     5.0522 C.ar         1    LIG   0.0000
   9 S9           4.5922     4.3912     4.3034 S.3          1    LIG   0.0000
  10 C10          3.5034     3.4236     3.3744 C.ar         1    LIG   0.0000
  11 C11          3.8806     2.1037     3.1871 C.ar         1    LIG   0.0000
  12 C12          3.0295     1.3238     2.4204 C.ar         1    LIG   0.0000
  13 C13          1.8770     1.8770     1.8770 C.ar         1    LIG   0.0000
  14 C14          1.0000     1.0000     1.0000 C.3          1    LIG   0.0000
  15 C15          0.9112    -0.3922     1.6035 C.3          1    LIG   0.0000
  16 O16          0.5073    -1.3165     0.6039 O.3          1    LIG   0.0000
  17 C17          1.5441     3.2045     2.1214 C.ar         1    LIG   0.0000
  18 C18          2.3526     4.0300     2.8981 C.ar         1    LIG   0.0000
  19 H            1.1638     7.0976     2.5733 H            1    LIG   0.0000
  20 H            1.8052     6.2138     1.3591 H            1    LIG   0.0000
  21 H            0.4060     5.7457     2.0590 H            1    LIG   0.0000
  22 H            0.8548     7.2838     4.6620 H            1    LIG   0.0000
  23 H            1.5910     8.2366     6.7118 H            1    LIG   0.0000
  24 H            3.6118     7.4718     7.7274 H            1    LIG   0.0000
  25 H            4.9362     5.7657     6.6621 H            1    LIG   0.0000
  26 H            4.7210     1.7341     3.5835 H            1    LIG   0.0000
  27 H            3.2455     0.3610     2.2581 H            1    LIG   0.0000
  28 H            1.3970     0.9416     0.0840 H            1    LIG   0.0000
  29 H            0.0840     1.3970     0.9416 H            1    LIG   0.0000
  30 H            1.8064    -0.6582     1.9612 H            1    LIG   0.0000
  31 H            0.2421    -0.3914     2.3466 H            1    LIG   0.0000
  32 H            0.4489    -2.2324     1.0010 H            1    LIG   0.0000
  33 H            0.7024     3.5759     1.7294 H            1    LIG   0.0000
@<TRIPOS>BOND
   1        1        2 1
   2        2        3 1
   3        3        4 ar
   4        4        5 ar
   5        5        6 ar
   6        6        7 ar
   7        7        8 ar
   8        8        3 ar
   9        8        9 1
  10        9       10 1
  11       10       11 ar
  12       11       12 ar
  13       12       13 ar
  14       13       14 1
  15       14       15 1
  16       15       16 1
  17       13       17 ar
  18       17       18 ar
  19       18       10 ar
  20       18        2 1
  21        1       19 1
  22        1       20 1
  23        1       21 1
  24        4       22 1
  25        5       23 1
  26        6       24 1
  27        7       25 1
  28       11       26 1
  29       12       27 1
  30       14       28 1
  31       14       29 1
  32       15       30 1
  33       15       31 1
  34       16       32 1
  35       17       33 1

@<TRIPOS>MOLECULE

  33   35
SMALL
USER_CHARGES
@<TRIPOS>ATOM
   1 C1           6.2197     1.7455     1.7220 C.3          1    LIG   0.0000
   2 N2           5.4620     2.8709     2.2938 N.pl3        1    LIG   0.0000
   3 C3           6.1474     4.0588     2.6251 C.ar         1    LIG   0.0000
   4 C4           7.2647     4.5353     1.9439 C.ar         1    LIG   0.0000
   5 C5           7.9023     5.7165     2.3066 C.ar         1    LIG   0.0000
   6 C6           7.4124     6.4638     3.3736 C.ar         1    LIG   0.0000
   7 C7           6.3037     6.0399     4.0907 C.ar         1    LIG   0.0000
   8 C8           5.7303     4.8484     3.6829 C.ar         1    LIG   0.0000
   9 S9           4.3628     4.3255     4.5985 S.3          1    LIG   0.0000
  10 C10          3.4108     3.3833     3.5072 C.ar         1    LIG   0.0000
  11 C11          2.0487     3.3633     3.7594 C.ar         1    LIG   0.0000
  12 C12          1.2770     2.5890     2.9079 C.ar         1    LIG   0.0000
  13 C13          1.8770     1.8770     1.8770 C.ar         1    LIG   0.0000
  14 C14          1.0000     1.0000     1.0000 C.3          1    LIG   0.0000
  15 C15          0.9112    -0.3922     1.6035 C.3          1    LIG   0.0000
  16 O16          0.0914    -1.2121     0.7836 O.3          1    LIG   0.0000
  17 C17          3.2485     1.9575     1.6640 C.ar         1    LIG   0.0000
  18 C18          4.0705     2.7329     2.4774 C.ar         1    LIG   0.0000
  19 H            7.1860     1.9942     1.6546 H            1    LIG   0.0000
  20 H            6.1222     0.9440     2.3119 H            1    LIG   0.0000
  21 H            5.8657     1.5339     0.8110 H            1    LIG   0.0000
  22 H            7.6197     4.0115     1.1695 H            1    LIG   0.0000
  23 H            8.7086     6.0274     1.8034 H            1    LIG   0.0000
  24 H            7.8662     7.3183     3.6266 H            1    LIG   0.0000
  25 H            5.9391     6.5657     4.8592 H            1    LIG   0.0000
  26 H            1.6446     3.8793     4.5147 H            1    LIG   0.0000
  27 H            0.2863     2.5427     3.0357 H            1    LIG   0.0000
  28 H            1.3970     0.9416     0.0840 H            1    LIG   0.0000
  29 H            0.0840     1.3970     0.9416 H            1    LIG   0.0000
  30 H            1.8272    -0.7893     1.6619 H            1    LIG   0.0000
  31 H            0.5142    -0.3338     2.5194 H            1    LIG   0.0000
  32 H            0.0330    -2.1280     1.1806 H            1    LIG   0.0000
  33 H            3.6549     1.4455     0.9073 H            1    LIG   0.0000
@<TRIPOS>BOND
   1        1        2 1
   2        2        3 1
   3        3        4 ar
   4        4        5 ar
   5        5        6 ar
   6        6        7 ar
   7        7        8 ar
   8        8        3 ar
   9        8        9 1
  10        9       10 1
  11       10       11 ar
  12       11       12 ar
  13       12       13 ar
  14       13       14 1
  15       14       15 1
  16       15       16 1
  17       13       17 ar
  18       17       18 ar
  19       18       10 ar
  20       18        2 1
  21        1       19 1
  22        1       20 1
  23        1       21 1
  24        4       22 1
  25        5       23 1
  26        6       24 1
  27        7       25 1
  28       11       26 1
  29       12       27 1
  30       14       28 1
  31       14       29 1
  32       15       30 1
  33       15       31 1
  34       16       32 1
  35       17       33 1

@<TRIPOS>MOLECULE

  33   35
SMALL
USER_CHARGES
@<TRIPOS>ATOM
   1 C1           5.8258     0.6459     3.2155 C.3          1    LIG   0.0000
   2 N2           5.3714     2.0463     3.2091 N.pl3        1    LIG   0.0000
   3 C3           6.3107     3.0712     3.4493 C.ar         1    LIG   0.0000
   4 C4           7.6533     3.0055     3.0851 C.ar         1    LIG   0.0000
   5 C5           8.5391     4.0465     3.3398 C.ar         1    LIG   0.0000
   6 C6           8.0818     5.2023     3.9658 C.ar         1    LIG   0.0000
   7 C7           6.7558     5.3258     4.3527 C.ar         1    LIG   0.0000
   8 C8           5.9359     4.2447     4.0810 C.ar         1    LIG   0.0000
   9 S9           4.2928     4.4074     4.5866 S.3          1    LIG   0.0000
  10 C10          3.3781     3.4179     3.5053 C.ar         1    LIG   0.0000
  11 C11          2.0694     3.8161     3.2859 C.ar         1    LIG   0.0000
  12 C12          1.3163     3.0154     2.4421 C.ar         1    LIG   0.0000
  13 C13          1.8770     1.8770     1.8770 C.ar         1    LIG   0.0000
  14 C14          1.0000     1.0000     1.0000 C.3          1    LIG   0.0000
  15 C15          0.9112    -0.3922     1.6035 C.3          1    LIG   0.0000
  16 O16          0.5073    -1.3165     0.6039 O.3          1    LIG   0.0000
  17 C17          3.2048     1.5447     2.1205 C.ar         1    LIG   0.0000
  18 C18          4.0134     2.3213     2.9461 C.ar         1    LIG   0.0000
  19 H            6.8051     0.6141     3.4155 H            1    LIG   0.0000
  20 H            5.3259     0.1364     3.9158 H            1    LIG   0.0000
  21 H            5.6552     0.2359     2.3195 H            1    LIG   0.0000
  22 H            7.9909     2.1837     2.6261 H            1    LIG   0.0000
  23 H            9.4998     3.9651     3.0745 H            1    LIG   0.0000
  24 H            8.7181     5.9540     4.1389 H            1    LIG   0.0000
  25 H            6.4115     6.1498     4.8028 H            1    LIG   0.0000
  26 H            1.6891     4.6364     3.7130 H            1    LIG   0.0000
  27 H            0.3675     3.2576     2.2396 H            1    LIG   0.0000
  28 H            1.3970     0.9416     0.0840 H            1    LIG   0.0000
  29 H            0.0840     1.3970     0.9416 H            1    LIG   0.0000
  30 H            1.8064    -0.6582     1.9612 H            1    LIG   0.0000
  31 H            0.2421    -0.3914     2.3466 H            1    LIG   0.0000
  32 H            0.4489    -2.2324     1.0010 H            1    LIG   0.0000
  33 H            3.5889     0.7270     1.6918 H            1    LIG   0.0000
@<TRIPOS>BOND
   1        1        2 1
   2        2        3 1
   3        3        4 ar
   4        4        5 ar
   5        5        6 ar
   6        6        7 ar
   7        7        8 ar
   8        8        3 ar
   9        8        9 1
  10        9       10 1
  11       10       11 ar
  12       11       12 ar
  13       12       13 ar
  14       13       14 1
  15       14       15 1
  16       15       16 1
  17       13       17 ar
  18       17       18 ar
  19       18       10 ar
  20       18        2 1
  21        1       19 1
  22        1       20 1
  23        1       21 1
  24        4       22 1
  25        5       23 1
  26        6       24 1
  27        7       25 1
  28       11       26 1
  29       12       27 1
  30       14       28 1
  31       14       29 1
  32       15       30 1
  33       15       31 1
  34       16       32 1
  35       17       33 1

@<TRIPOS>MOLECULE

  33   35
SMALL
USER_CHARGES
@<TRIPOS>ATOM
   1 C1           5.1410     4.2647     0.2815 C.3          1    LIG   0.0000
   2 N2           4.5210     4.5119     1.5938 N.pl3        1    LIG   0.0000
   3 C3           4.8452     5.6946     2.2914 C.ar         1    LIG   0.0000
   4 C4           5.1600     6.9050     1.6788 C.ar         1    LIG   0.0000
   5 C5           5.4676     8.0455     2.4122 C.ar         1    LIG   0.0000
   6 C6           5.4518     7.9951     3.8029 C.ar         1    LIG   0.0000
   7 C7           5.1467     6.8180     4.4696 C.ar         1    LIG   0.0000
   8 C8           4.8661     5.7201     3.6754 C.ar         1    LIG   0.0000
   9 S9           4.5072     4.2582     4.5215 S.3          1    LIG   0.0000
  10 C10          3.4738     3.3587     3.4688 C.ar         1    LIG   0.0000
  11 C11          2.5841     2.4973     4.0900 C.ar         1    LIG   0.0000
  12 C12          1.7684     1.7494     3.2560 C.ar         1    LIG   0.0000
  13 C13          1.8770     1.8770     1.8770 C.ar         1    LIG   0.0000
  14 C14          1.0000     1.0000     1.0000 C.3          1    LIG   0.0000
  15 C15          0.9112    -0.3922     1.6035 C.3          1    LIG   0.0000
  16 O16          0.0914    -1.2121     0.7836 O.3          1    LIG   0.0000
  17 C17          2.7763     2.7771     1.3167 C.ar         1    LIG   0.0000
  18 C18          3.6085     3.5663     2.1059 C.ar         1    LIG   0.0000
  19 H            5.7590     5.0183     0.0575 H            1    LIG   0.0000
  20 H            5.6569     3.4086     0.3126 H            1    LIG   0.0000
  21 H            4.4283     4.1992    -0.4169 H            1    LIG   0.0000
  22 H            5.1651     6.9555     0.6801 H            1    LIG   0.0000
  23 H            5.6990     8.8977     1.9428 H            1    LIG   0.0000
  24 H            5.6634     8.8190     4.3286 H            1    LIG   0.0000
  25 H            5.1304     6.7655     5.4681 H            1    LIG   0.0000
  26 H            2.5334     2.4195     5.0856 H            1    LIG   0.0000
  27 H            1.1004     1.1167     3.6476 H            1    LIG   0.0000
  28 H            1.3970     0.9416     0.0840 H            1    LIG   0.0000
  29 H            0.0840     1.3970     0.9416 H            1    LIG   0.0000
  30 H            1.8272    -0.7893     1.6619 H            1    LIG   0.0000
  31 H            0.5142    -0.3338     2.5194 H            1    LIG   0.0000
  32 H            0.0330    -2.1280     1.1806 H            1    LIG   0.0000
  33 H            2.8266     2.8597     0.3214 H            1    LIG   0.0000
@<TRIPOS>BOND
   1        1        2 1
   2        2        3 1
   3        3        4 ar
   4        4        5 ar
   5        5        6 ar
   6        6        7 ar
   7        7        8 ar
   8        8        3 ar
   9        8        9 1
  10        9       10 1
  11       10       11 ar
  12       11       12 ar
  13       12       13 ar
  14       13       14 1
  15       14       15 1
  16       15       16 1
  17       13       17 ar
  18       17       18 ar
  19       18       10 ar
  20       18        2 1
  21        1       19 1
  22        1       20 1
  23        1       21 1
  24        4       22 1
  25        5       23 1
  26        6       24 1
  27        7       25 1
  28       11       26 1
  29       12       27 1
  30       14       28 1
  31       14       29 1
  32       15       30 1
  33       15       31 1
  34       16       32 1
  35       17       33 1

@<TRIPOS>MOLECULE

  33   35
SMALL
USER_CHARGES
@<TRIPOS>ATOM
   1 C1           0.0870     4.4711     4.8340 C.3          1    LIG   0.0000
   2 N2           1.5310     4.2190     4.7627 N.pl3        1    LIG   0.0000
   3 C3           2.3549     4.9597     5.6397 C.ar         1    LIG   0.0000
   4 C4           1.8608     5.6958     6.7161 C.ar         1    LIG   0.0000
   5 C5           2.6557     6.4678     7.5518 C.ar         1    LIG   0.0000
   6 C6           4.0232     6.5423     7.3086 C.ar         1    LIG   0.0000
   7 C7           4.6008     5.8308     6.2665 C.ar         1    LIG   0.0000
   8 C8           3.7441     5.0667     5.4905 C.ar         1    LIG   0.0000
   9 S9           4.6565     4.2715     4.2538 S.3          1    LIG   0.0000
  10 C10          3.4526     3.3901     3.3889 C.ar         1    LIG   0.0000
  11 C11          4.0789     2.6943     2.3767 C.ar         1    LIG   0.0000
  12 C12          3.2315     1.9256     1.6038 C.ar         1    LIG   0.0000
  13 C13          1.8734     1.8734     1.8734 C.ar         1    LIG   0.0000
  14 C14          1.0000     1.0000     1.0000 C.3          1    LIG   0.0000
  15 C15          0.9112    -0.3922     1.6035 C.3          1    LIG   0.0000
  16 O16          0.0914    -1.2121     0.7836 O.3          1    LIG   0.0000
  17 C17          1.3037     2.6075     2.9040 C.ar         1    LIG   0.0000
  18 C18          2.0794     3.4214     3.7242 C.ar         1    LIG   0.0000
  19 H           -0.1119     5.0485     5.6259 H            1    LIG   0.0000
  20 H           -0.2121     4.9346     4.0000 H            1    LIG   0.0000
  21 H           -0.3990     3.6019     4.9249 H            1    LIG   0.0000
  22 H            0.8775     5.6659     6.8960 H            1    LIG   0.0000
  23 H            2.2504     6.9642     8.3194 H            1    LIG   0.0000
  24 H            4.5976     7.1162     7.8922 H            1    LIG   0.0000
  25 H            5.5836     5.8676     6.0852 H            1    LIG   0.0000
  26 H            5.0647     2.7423     2.2157 H            1    LIG   0.0000
  27 H            3.6031     1.3992     0.8390 H            1    LIG   0.0000
  28 H            1.3970     0.9416     0.0840 H            1    LIG   0.0000
  29 H            0.0840     1.3970     0.9416 H            1    LIG   0.0000
  30 H            1.8272    -0.7893     1.6619 H            1    LIG   0.0000
  31 H            0.5142    -0.3338     2.5194 H            1    LIG   0.0000
  32 H            0.0330    -2.1280     1.1806 H            1    LIG   0.0000
  33 H            0.3176     2.5508     3.0602 H            1    LIG   0.0000
@<TRIPOS>BOND
   1        1        2 1
   2        2        3 1
   3        3        4 ar
   4        4        5 ar
   5        5        6 ar
   6        6        7 ar
   7        7        8 ar
   8        8        3 ar
   9        8        9 1
  10        9       10 1
  11       10       11 ar
  12       11       12 ar
  13       12       13 ar
  14       13       14 1
  15       14       15 1
  16       15       16 1
  17       13       17 ar
  18       17       18 ar
  19       18       10 ar
  20       18        2 1
  21        1       19 1
  22        1       20 1
  23        1       21 1
  24        4       22 1
  25        5       23 1
  26        6       24 1
  27        7       25 1
  28       11       26 1
  29       12       27 1
  30       14       28 1
  31       14       29 1
  32       15       30 1
  33       15       31 1
  34       16       32 1
  35       17       33 1

@<TRIPOS>MOLECULE

  33   35
SMALL
USER_CHARGES
@<TRIPOS>ATOM
   1 C1           0.3900     5.6619     3.3403 C.3          1    LIG   0.0000
   2 N2           1.6384     5.0562     3.8181 N.pl3        1    LIG   0.0000
   3 C3           2.4216     5.8220     4.7107 C.ar         1    LIG   0.0000
   4 C4           1.9543     6.9717     5.3466 C.ar         1    LIG   0.0000
   5 C5           2.7317     7.7593     6.1843 C.ar         1    LIG   0.0000
   6 C6           4.0612     7.4124     6.4004 C.ar         1    LIG   0.0000
   7 C7           4.6044     6.2762     5.8176 C.ar         1    LIG   0.0000
   8 C8           3.7588     5.5307     5.0118 C.ar         1    LIG   0.0000
   9 S9           4.6265     4.1717     4.3837 S.3          1    LIG   0.0000
  10 C10          3.4473     3.3745     3.4098 C.ar         1    LIG   0.0000
  11 C11          4.0328     2.2505     2.8666 C.ar         1    LIG   0.0000
  12 C12          3.1934     1.4996     2.0679 C.ar         1    LIG   0.0000
  13 C13          1.8734     1.8734     1.8734 C.ar         1    LIG   0.0000
  14 C14          1.0000     1.0000     1.0000 C.3          1    LIG   0.0000
  15 C15          0.9112    -0.3922     1.6035 C.3          1    LIG   0.0000
  16 O16          0.5073    -1.3165     0.6039 O.3          1    LIG   0.0000
  17 C17          1.3478     3.0245     2.4429 C.ar         1    LIG   0.0000
  18 C18          2.1254     3.8498     3.2499 C.ar         1    LIG   0.0000
  19 H            0.2082     6.5002     3.8542 H            1    LIG   0.0000
  20 H            0.4756     5.8789     2.3679 H            1    LIG   0.0000
  21 H           -0.3646     5.0192     3.4731 H            1    LIG   0.0000
  22 H            1.0050     7.2444     5.1900 H            1    LIG   0.0000
  23 H            2.3407     8.5662     6.6271 H            1    LIG   0.0000
  24 H            4.6332     7.9894     6.9834 H            1    LIG   0.0000
  25 H            5.5558     6.0094     5.9711 H            1    LIG   0.0000
  26 H            4.9858     2.0001     3.0369 H            1    LIG   0.0000
  27 H            3.5429     0.6747     1.6237 H            1    LIG   0.0000
  28 H            1.3970     0.9416     0.0840 H            1    LIG   0.0000
  29 H            0.0840     1.3970     0.9416 H            1    LIG   0.0000
  30 H            1.8064    -0.6582     1.9612 H            1    LIG   0.0000
  31 H            0.2421    -0.3914     2.3466 H            1    LIG   0.0000
  32 H            0.4489    -2.2324     1.0010 H            1    LIG   0.0000
  33 H            0.3928     3.2655     2.2703 H            1    LIG   0.0000
@<TRIPOS>BOND
   1        1        2 1
   2        2        3 1
   3        3        4 ar
   4        4        5 ar
   5        5        6 ar
   6        6        7 ar
   7        7        8 ar
   8        8        3 ar
   9        8        9 1
  10        9       10 1
  11       10       11 ar
  12       11       12 ar
  13       12       13 ar
  14       13       14 1
  15       14       15 1
  16       15       16 1
  17       13       17 ar
  18       17       18 ar
  19       18       10 ar
  20       18        2 1
  21        1       19 1
  22        1       20 1
  23        1       21 1
  24        4       22 1
  25        5       23 1
  26        6       24 1
  27        7       25 1
  28       11       26 1
  29       12       27 1
  30       14       28 1
  31       14       29 1
  32       15       30 1
  33       15       31 1
  34       16       32 1
  35       17       33 1

@<TRIPOS>MOLECULE

  33   35
SMALL
USER_CHARGES
@<TRIPOS>ATOM
   1 C1           6.1744     1.7903     1.4273 C.3          1    LIG   0.0000
   2 N2           5.4775     2.7894     2.2458 N.pl3        1    LIG   0.0000
   3 C3           6.2813     3.6765     2.9965 C.ar         1    LIG   0.0000
   4 C4           7.6544     3.8193     2.7990 C.ar         1    LIG   0.0000
   5 C5           8.4612     4.6491     3.5650 C.ar         1    LIG   0.0000
   6 C6           7.8929     5.3737     4.6075 C.ar         1    LIG   0.0000
   7 C7           6.5313     5.3013     4.8656 C.ar         1    LIG   0.0000
   8 C8           5.7901     4.4675     4.0437 C.ar         1    LIG   0.0000
   9 S9           4.1314     4.5164     4.5341 S.3          1    LIG   0.0000
  10 C10          3.3685     3.4309     3.4322 C.ar         1    LIG   0.0000
  11 C11          2.0210     3.4056     3.7233 C.ar         1    LIG   0.0000
  12 C12          1.2757     2.5817     2.9035 C.ar         1    LIG   0.0000
  13 C13          1.8734     1.8734     1.8734 C.ar         1    LIG   0.0000
  14 C14          1.0000     1.0000     1.0000 C.3          1    LIG   0.0000
  15 C15          0.9112    -0.3922     1.6035 C.3          1    LIG   0.0000
  16 O16          0.0914    -1.2121     0.7836 O.3          1    LIG   0.0000
  17 C17          3.2398     1.9360     1.6395 C.ar         1    LIG   0.0000
  18 C18          4.0706     2.7286     2.4258 C.ar         1    LIG   0.0000
  19 H            7.1536     1.9932     1.4158 H            1    LIG   0.0000
  20 H            6.0271     0.8803     1.8150 H            1    LIG   0.0000
  21 H            5.8176     1.8166     0.4936 H            1    LIG   0.0000
  22 H            8.0821     3.2937     2.0636 H            1    LIG   0.0000
  23 H            9.4390     4.7251     3.3699 H            1    LIG   0.0000
  24 H            8.4731     5.9545     5.1784 H            1    LIG   0.0000
  25 H            6.1073     5.8233     5.6057 H            1    LIG   0.0000
  26 H            1.6171     3.9395     4.4662 H            1    LIG   0.0000
  27 H            0.2911     2.4950     3.0552 H            1    LIG   0.0000
  28 H            1.3970     0.9416     0.0840 H            1    LIG   0.0000
  29 H            0.0840     1.3970     0.9416 H            1    LIG   0.0000
  30 H            1.8272    -0.7893     1.6619 H            1    LIG   0.0000
  31 H            0.5142    -0.3338     2.5194 H            1    LIG   0.0000
  32 H            0.0330    -2.1280     1.1806 H            1    LIG   0.0000
  33 H            3.6348     1.4016     0.8922 H            1    LIG   0.0000
@<TRIPOS>BOND
   1        1        2 1
   2        2        3 1
   3        3        4 ar
   4        4        5 ar
   5        5        6 ar
   6        6        7 ar
   7        7        8 ar
   8        8        3 ar
   9        8        9 1
  10        9       10 1
  11       10       11 ar
  12       11       12 ar
  13       12       13 ar
  14       13       14 1
  15       14       15 1
  16       15       16 1
  17       13       17 ar
  18       17       18 ar
  19       18       10 ar
  20       18        2 1
  21        1       19 1
  22        1       20 1
  23        1       21 1
  24        4       22 1
  25        5       23 1
  26        6       24 1
  27        7       25 1
  28       11       26 1
  29       12       27 1
  30       14       28 1
  31       14       29 1
  32       15       30 1
  33       15       31 1
  34       16       32 1
  35       17       33 1

@<TRIPOS>MOLECULE

  33   35
SMALL
USER_CHARGES
@<TRIPOS>ATOM
   1 C1           5.6619     3.3403     0.3900 C.3          1    LIG   0.0000
   2 N2           5.0562     3.8181     1.6384 N.pl3        1    LIG   0.0000
   3 C3           5.8220     4.7107     2.4216 C.ar         1    LIG   0.0000
   4 C4           6.9717     5.3466     1.9543 C.ar         1    LIG   0.0000
   5 C5           7.7593     6.1843     2.7317 C.ar         1    LIG   0.0000
   6 C6           7.4124     6.4004     4.0612 C.ar         1    LIG   0.0000
   7 C7           6.2762     5.8176     4.6044 C.ar         1    LIG   0.0000
   8 C8           5.5307     5.0118     3.7588 C.ar         1    LIG   0.0000
   9 S9           4.1717     4.3837     4.6265 S.3          1    LIG   0.0000
  10 C10          3.3745     3.4098     3.4473 C.ar         1    LIG   0.0000
  11 C11          2.2505     2.8666     4.0328 C.ar         1    LIG   0.0000
  12 C12          1.4996     2.0679     3.1934 C.ar         1    LIG   0.0000
  13 C13          1.8734     1.8734     1.8734 C.ar         1    LIG   0.0000
  14 C14          1.0000     1.0000     1.0000 C.3          1    LIG   0.0000
  15 C15          0.9112    -0.3922     1.6035 C.3          1    LIG   0.0000
  16 O16         -0.2290    -1.0611     1.0849 O.3          1    LIG   0.0000
  17 C17          3.0245     2.4429     1.3478 C.ar         1    LIG   0.0000
  18 C18          3.8498     3.2499     2.1254 C.ar         1    LIG   0.0000
  19 H            6.5002     3.8542     0.2082 H            1    LIG   0.0000
  20 H            5.8789     2.3679     0.4756 H            1    LIG   0.0000
  21 H            5.0192     3.4731    -0.3646 H            1    LIG   0.0000
  22 H            7.2444     5.1900     1.0050 H            1    LIG   0.0000
  23 H            8.5662     6.6271     2.3407 H            1    LIG   0.0000
  24 H            7.9894     6.9834     4.6332 H            1    LIG   0.0000
  25 H            6.0094     5.9711     5.5558 H            1    LIG   0.0000
  26 H            2.0001     3.0369     4.9858 H            1    LIG   0.0000
  27 H            0.6747     1.6237     3.5429 H            1    LIG   0.0000
  28 H            1.3970     0.9416     0.0840 H            1    LIG   0.0000
  29 H            0.0840     1.3970     0.9416 H            1    LIG   0.0000
  30 H            1.7351    -0.9093     1.3715 H            1    LIG   0.0000
  31 H            0.8318    -0.3202     2.5977 H            1    LIG   0.0000
  32 H           -0.2874    -1.9770     1.4819 H            1    LIG   0.0000
  33 H            3.2655     2.2703     0.3928 H            1    LIG   0.0000
@<TRIPOS>BOND
   1        1        2 1
   2        2        3 1
   3        3        4 ar
   4        4        5 ar
   5        5        6 ar
   6        6        7 ar
   7        7        8 ar
   8        8        3 ar
   9        8        9 1
  10        9       10 1
  11       10       11 ar
  12       11       12 ar
  13       12       13 ar
  14       13       14 1
  15       14       15 1
  16       15       16 1
  17       13       17 ar
  18       17       18 ar
  19       18       10 ar
  20       18        2 1
  21        1       19 1
  22        1       20 1
  23        1       21 1
  24        4       22 1
  25        5       23 1
  26        6       24 1
  27        7       25 1
  28       11       26 1
  29       12       27 1
  30       14       28 1
  31       14       29 1
  32       15       30 1
  33       15       31 1
  34       16       32 1
  35       17       33 1

@<TRIPOS>MOLECULE

  33   35
SMALL
USER_CHARGES
@<TRIPOS>ATOM
   1 C1           5.8714     0.5995     2.9211 C.3          1    LIG   0.0000
   2 N2           5.3700     1.9523     3.1903 N.pl3        1    LIG   0.0000
   3 C3           6.2146     2.8142     3.9255 C.ar         1    LIG   0.0000
   4 C4           7.5608     2.5434     4.1685 C.ar         1    LIG   0.0000
   5 C5           8.3852     3.3575     4.9326 C.ar         1    LIG   0.0000
   6 C6           7.8548     4.5036     5.5156 C.ar         1    LIG   0.0000
   7 C7           6.5277     4.8559     5.3145 C.ar         1    LIG   0.0000
   8 C8           5.7753     4.0035     4.5224 C.ar         1    LIG   0.0000
   9 S9           4.1615     4.6162     4.4042 S.3          1    LIG   0.0000
  10 C10          3.3738     3.4466     3.4112 C.ar         1    LIG   0.0000
  11 C11          2.0671     3.8494     3.2333 C.ar         1    LIG   0.0000
  12 C12          1.3139     3.0077     2.4394 C.ar         1    LIG   0.0000
  13 C13          1.8734     1.8734     1.8734 C.ar         1    LIG   0.0000
  14 C14          1.0000     1.0000     1.0000 C.3          1    LIG   0.0000
  15 C15          0.9112    -0.3922     1.6035 C.3          1    LIG   0.0000
  16 O16          0.5073    -1.3165     0.6039 O.3          1    LIG   0.0000
  17 C17          3.1957     1.5190     2.1006 C.ar         1    LIG   0.0000
  18 C18          4.0246     2.3002     2.9001 C.ar         1    LIG   0.0000
  19 H            6.8335     0.5415     3.1875 H            1    LIG   0.0000
  20 H            5.3393    -0.0640     3.4471 H            1    LIG   0.0000
  21 H            5.7831     0.3993     1.9454 H            1    LIG   0.0000
  22 H            7.9546     1.7153     3.7696 H            1    LIG   0.0000
  23 H            9.3487     3.1231     5.0623 H            1    LIG   0.0000
  24 H            8.4375     5.0812     6.0873 H            1    LIG   0.0000
  25 H            6.1351     5.6815     5.7198 H            1    LIG   0.0000
  26 H            1.6961     4.6818     3.6450 H            1    LIG   0.0000
  27 H            0.3513     3.2195     2.2706 H            1    LIG   0.0000
  28 H            1.3970     0.9416     0.0840 H            1    LIG   0.0000
  29 H            0.0840     1.3970     0.9416 H            1    LIG   0.0000
  30 H            1.8064    -0.6582     1.9612 H            1    LIG   0.0000
  31 H            0.2421    -0.3914     2.3466 H            1    LIG   0.0000
  32 H            0.4489    -2.2324     1.0010 H            1    LIG   0.0000
  33 H            3.5596     0.6869     1.6821 H            1    LIG   0.0000
@<TRIPOS>BOND
   1        1        2 1
   2        2        3 1
   3        3        4 ar
   4        4        5 ar
   5        5        6 ar
   6        6        7 ar
   7        7        8 ar
   8        8        3 ar
   9        8        9 1
  10        9       10 1
  11       10       11 ar
  12       11       12 ar
  13       12       13 ar
  14       13       14 1
  15       14       15 1
  16       15       16 1
  17       13       17 ar
  18       17       18 ar
  19       18       10 ar
  20       18        2 1
  21        1       19 1
  22        1       20 1
  23        1       21 1
  24        4       22 1
  25        5       23 1
  26        6       24 1
  27        7       25 1
  28       11       26 1
  29       12       27 1
  30       14       28 1
  31       14       29 1
  32       15       30 1
  33       15       31 1
  34       16       32 1
  35       17       33 1

