@<TRIPOS>MOLECULE
*****
 33 35 0 0 0
SMALL
USER_CHARGES

@<TRIPOS>ATOM
      1 C1          6.0459    2.7444    0.9731 C.3     1  LIG1        0.0000
      2 N2          5.4617    2.9151    2.3143 N.pl3   1  LIG1        0.0000
      3 C3          6.3252    3.2039    3.3949 C.ar    1  LIG1        0.0000
      4 C4          7.6400    2.7523    3.4899 C.ar    1  LIG1        0.0000
      5 C5          8.4518    3.0577    4.5759 C.ar    1  LIG1        0.0000
      6 C6          7.9569    3.8337    5.6175 C.ar    1  LIG1        0.0000
      7 C7          6.6562    4.3138    5.5817 C.ar    1  LIG1        0.0000
      8 C8          5.9059    3.9840    4.4650 C.ar    1  LIG1        0.0000
      9 S9          4.2958    4.6141    4.4121 S.3     1  LIG1        0.0000
     10 C10         3.3722    3.5193    3.4359 C.ar    1  LIG1        0.0000
     11 C11         2.0147    3.4457    3.6976 C.ar    1  LIG1        0.0000
     12 C12         1.2624    2.6008    2.8928 C.ar    1  LIG1        0.0000
     13 C13         1.8774    1.8774    1.8774 C.ar    1  LIG1        0.0000
     14 C14         1.0000    1.0000    1.0000 C.3     1  LIG1        0.0000
     15 C15         0.9112   -0.3922    1.6035 C.3     1  LIG1        0.0000
     16 O16         0.0914   -1.2121    0.7836 O.3     1  LIG1        0.0000
     17 C17         3.2547    1.9765    1.6858 C.ar    1  LIG1        0.0000
     18 C18         4.0626    2.8008    2.4704 C.ar    1  LIG1        0.0000
     19 H           7.0386    2.8534    1.0255 H       1  LIG1        0.0000
     20 H           5.8286    1.8310    0.6287 H       1  LIG1        0.0000
     21 H           5.6672    3.4327    0.3544 H       1  LIG1        0.0000
     22 H           8.0120    2.1895    2.7517 H       1  LIG1        0.0000
     23 H           9.3921    2.7190    4.6080 H       1  LIG1        0.0000
     24 H           8.5433    4.0476    6.3987 H       1  LIG1        0.0000
     25 H           6.2798    4.8690    6.3233 H       1  LIG1        0.0000
     26 H           1.5949    3.9772    4.4333 H       1  LIG1        0.0000
     27 H           0.2778    2.5125    3.0436 H       1  LIG1        0.0000
     28 H           1.3970    0.9416    0.0840 H       1  LIG1        0.0000
     29 H           0.0840    1.3970    0.9416 H       1  LIG1        0.0000
     30 H           1.8272   -0.7893    1.6619 H       1  LIG1        0.0000
     31 H           0.5142   -0.3338    2.5194 H       1  LIG1        0.0000
     32 H           0.0330   -2.1280    1.1806 H       1  LIG1        0.0000
     33 H           3.6797    1.4367    0.9591 H       1  LIG1        0.0000
@<TRIPOS>BOND
     1     1     2    1
     2     2     3    1
     3     3     4   ar
     4     4     5   ar
     5     5     6   ar
     6     6     7   ar
     7     7     8   ar
     8     8     3   ar
     9     8     9    1
    10     9    10    1
    11    10    11   ar
    12    11    12   ar
    13    12    13   ar
    14    13    14    1
    15    14    15    1
    16    15    16    1
    17    13    17   ar
    18    17    18   ar
    19    18    10   ar
    20    18     2    1
    21     1    19    1
    22     1    20    1
    23     1    21    1
    24     4    22    1
    25     5    23    1
    26     6    24    1
    27     7    25    1
    28    11    26    1
    29    12    27    1
    30    14    28    1
    31    14    29    1
    32    15    30    1
    33    15    31    1
    34    16    32    1
    35    17    33    1
