@<TRIPOS>MOLECULE
*****
 33 35 0 0 0
SMALL
USER_CHARGES

@<TRIPOS>ATOM
      1 C1          1.2963    6.1719    2.2190 C.3     1  LIG1        0.0000
      2 N2          2.0530    5.3750    3.1988 N.pl3   1  LIG1        0.0000
      3 C3          2.4408    5.9752    4.4152 C.ar    1  LIG1        0.0000
      4 C4          1.7103    6.9642    5.0694 C.ar    1  LIG1        0.0000
      5 C5          2.1331    7.5210    6.2713 C.ar    1  LIG1        0.0000
      6 C6          3.3146    7.0774    6.8579 C.ar    1  LIG1        0.0000
      7 C7          4.0853    6.0957    6.2532 C.ar    1  LIG1        0.0000
      8 C8          3.6108    5.5986    5.0522 C.ar    1  LIG1        0.0000
      9 S9          4.5922    4.3912    4.3034 S.3     1  LIG1        0.0000
     10 C10         3.5034    3.4236    3.3744 C.ar    1  LIG1        0.0000
     11 C11         3.8806    2.1037    3.1871 C.ar    1  LIG1        0.0000
     12 C12         3.0295    1.3238    2.4204 C.ar    1  LIG1        0.0000
     13 C13         1.8770    1.8770    1.8770 C.ar    1  LIG1        0.0000
     14 C14         1.0000    1.0000    1.0000 C.3     1  LIG1        0.0000
     15 C15         0.9112   -0.3922    1.6035 C.3     1  LIG1        0.0000
     16 O16         0.5073   -1.3165    0.6039 O.3     1  LIG1        0.0000
     17 C17         1.5441    3.2045    2.1214 C.ar    1  LIG1        0.0000
     18 C18         2.3526    4.0300    2.8981 C.ar    1  LIG1        0.0000
     19 H           1.1638    7.0976    2.5733 H       1  LIG1        0.0000
     20 H           1.8052    6.2138    1.3591 H       1  LIG1        0.0000
     21 H           0.4060    5.7457    2.0590 H       1  LIG1        0.0000
     22 H           0.8548    7.2838    4.6620 H       1  LIG1        0.0000
     23 H           1.5910    8.2366    6.7118 H       1  LIG1        0.0000
     24 H           3.6118    7.4718    7.7274 H       1  LIG1        0.0000
     25 H           4.9362    5.7657    6.6621 H       1  LIG1        0.0000
     26 H           4.7210    1.7341    3.5835 H       1  LIG1        0.0000
     27 H           3.2455    0.3610    2.2581 H       1  LIG1        0.0000
     28 H           1.3970    0.9416    0.0840 H       1  LIG1        0.0000
     29 H           0.0840    1.3970    0.9416 H       1  LIG1        0.0000
     30 H           1.8064   -0.6582    1.9612 H       1  LIG1        0.0000
     31 H           0.2421   -0.3914    2.3466 H       1  LIG1        0.0000
     32 H           0.4489   -2.2324    1.0010 H       1  LIG1        0.0000
     33 H           0.7024    3.5759    1.7294 H       1  LIG1        0.0000
@<TRIPOS>BOND
     1     1     2    1
     2     2     3    1
     3     3     4   ar
     4     4     5   ar
     5     5     6   ar
     6     6     7   ar
     7     7     8   ar
     8     8     3   ar
     9     8     9    1
    10     9    10    1
    11    10    11   ar
    12    11    12   ar
    13    12    13   ar
    14    13    14    1
    15    14    15    1
    16    15    16    1
    17    13    17   ar
    18    17    18   ar
    19    18    10   ar
    20    18     2    1
    21     1    19    1
    22     1    20    1
    23     1    21    1
    24     4    22    1
    25     5    23    1
    26     6    24    1
    27     7    25    1
    28    11    26    1
    29    12    27    1
    30    14    28    1
    31    14    29    1
    32    15    30    1
    33    15    31    1
    34    16    32    1
    35    17    33    1
