@<TRIPOS>MOLECULE
*****
 33 35 0 0 0
SMALL
USER_CHARGES

@<TRIPOS>ATOM
      1 C1          5.8714    0.5995    2.9211 C.3     1  LIG1        0.0000
      2 N2          5.3700    1.9523    3.1903 N.pl3   1  LIG1        0.0000
      3 C3          6.2146    2.8142    3.9255 C.ar    1  LIG1        0.0000
      4 C4          7.5608    2.5434    4.1685 C.ar    1  LIG1        0.0000
      5 C5          8.3852    3.3575    4.9326 C.ar    1  LIG1        0.0000
      6 C6          7.8548    4.5036    5.5156 C.ar    1  LIG1        0.0000
      7 C7          6.5277    4.8559    5.3145 C.ar    1  LIG1        0.0000
      8 C8          5.7753    4.0035    4.5224 C.ar    1  LIG1        0.0000
      9 S9          4.1615    4.6162    4.4042 S.3     1  LIG1        0.0000
     10 C10         3.3738    3.4466    3.4112 C.ar    1  LIG1        0.0000
     11 C11         2.0671    3.8494    3.2333 C.ar    1  LIG1        0.0000
     12 C12         1.3139    3.0077    2.4394 C.ar    1  LIG1        0.0000
     13 C13         1.8734    1.8734    1.8734 C.ar    1  LIG1        0.0000
     14 C14         1.0000    1.0000    1.0000 C.3     1  LIG1        0.0000
     15 C15         0.9112   -0.3922    1.6035 C.3     1  LIG1        0.0000
     16 O16         0.5073   -1.3165    0.6039 O.3     1  LIG1        0.0000
     17 C17         3.1957    1.5190    2.1006 C.ar    1  LIG1        0.0000
     18 C18         4.0246    2.3002    2.9001 C.ar    1  LIG1        0.0000
     19 H           6.8335    0.5415    3.1875 H       1  LIG1        0.0000
     20 H           5.3393   -0.0640    3.4471 H       1  LIG1        0.0000
     21 H           5.7831    0.3993    1.9454 H       1  LIG1        0.0000
     22 H           7.9546    1.7153    3.7696 H       1  LIG1        0.0000
     23 H           9.3487    3.1231    5.0623 H       1  LIG1        0.0000
     24 H           8.4375    5.0812    6.0873 H       1  LIG1        0.0000
     25 H           6.1351    5.6815    5.7198 H       1  LIG1        0.0000
     26 H           1.6961    4.6818    3.6450 H       1  LIG1        0.0000
     27 H           0.3513    3.2195    2.2706 H       1  LIG1        0.0000
     28 H           1.3970    0.9416    0.0840 H       1  LIG1        0.0000
     29 H           0.0840    1.3970    0.9416 H       1  LIG1        0.0000
     30 H           1.8064   -0.6582    1.9612 H       1  LIG1        0.0000
     31 H           0.2421   -0.3914    2.3466 H       1  LIG1        0.0000
     32 H           0.4489   -2.2324    1.0010 H       1  LIG1        0.0000
     33 H           3.5596    0.6869    1.6821 H       1  LIG1        0.0000
@<TRIPOS>BOND
     1     1     2    1
     2     2     3    1
     3     3     4   ar
     4     4     5   ar
     5     5     6   ar
     6     6     7   ar
     7     7     8   ar
     8     8     3   ar
     9     8     9    1
    10     9    10    1
    11    10    11   ar
    12    11    12   ar
    13    12    13   ar
    14    13    14    1
    15    14    15    1
    16    15    16    1
    17    13    17   ar
    18    17    18   ar
    19    18    10   ar
    20    18     2    1
    21     1    19    1
    22     1    20    1
    23     1    21    1
    24     4    22    1
    25     5    23    1
    26     6    24    1
    27     7    25    1
    28    11    26    1
    29    12    27    1
    30    14    28    1
    31    14    29    1
    32    15    30    1
    33    15    31    1
    34    16    32    1
    35    17    33    1
