@<TRIPOS>MOLECULE
*****
 33 35 0 0 0
SMALL
USER_CHARGES

@<TRIPOS>ATOM
      1 C1          0.4630    3.7645    5.5358 C.3     1  LIG1        0.0000
      2 N2          1.6657    4.2123    4.8131 N.pl3   1  LIG1        0.0000
      3 C3          2.2908    5.4121    5.2211 C.ar    1  LIG1        0.0000
      4 C4          1.6148    6.5025    5.7649 C.ar    1  LIG1        0.0000
      5 C5          2.2718    7.6659    6.1477 C.ar    1  LIG1        0.0000
      6 C6          3.6485    7.7717    5.9879 C.ar    1  LIG1        0.0000
      7 C7          4.3782    6.7207    5.4528 C.ar    1  LIG1        0.0000
      8 C8          3.6640    5.5859    5.1049 C.ar    1  LIG1        0.0000
      9 S9          4.5855    4.2672    4.4693 S.3     1  LIG1        0.0000
     10 C10         3.5127    3.3656    3.4490 C.ar    1  LIG1        0.0000
     11 C11         4.0907    2.6597    2.4077 C.ar    1  LIG1        0.0000
     12 C12         3.2416    1.9032    1.6112 C.ar    1  LIG1        0.0000
     13 C13         1.8774    1.8774    1.8774 C.ar    1  LIG1        0.0000
     14 C14         1.0000    1.0000    1.0000 C.3     1  LIG1        0.0000
     15 C15         0.9112   -0.3922    1.6035 C.3     1  LIG1        0.0000
     16 O16         0.0914   -1.2121    0.7836 O.3     1  LIG1        0.0000
     17 C17         1.3566    2.6349    2.9255 C.ar    1  LIG1        0.0000
     18 C18         2.1600    3.4217    3.7521 C.ar    1  LIG1        0.0000
     19 H           0.2398    4.4249    6.2528 H       1  LIG1        0.0000
     20 H          -0.3031    3.6945    4.8969 H       1  LIG1        0.0000
     21 H           0.6357    2.8702    5.9484 H       1  LIG1        0.0000
     22 H           0.6235    6.4460    5.8838 H       1  LIG1        0.0000
     23 H           1.7539    8.4271    6.5381 H       1  LIG1        0.0000
     24 H           4.1165    8.6122    6.2610 H       1  LIG1        0.0000
     25 H           5.3683    6.7791    5.3247 H       1  LIG1        0.0000
     26 H           5.0754    2.6931    2.2370 H       1  LIG1        0.0000
     27 H           3.6115    1.3768    0.8457 H       1  LIG1        0.0000
     28 H           1.3970    0.9416    0.0840 H       1  LIG1        0.0000
     29 H           0.0840    1.3970    0.9416 H       1  LIG1        0.0000
     30 H           1.8272   -0.7893    1.6619 H       1  LIG1        0.0000
     31 H           0.5142   -0.3338    2.5194 H       1  LIG1        0.0000
     32 H           0.0330   -2.1280    1.1806 H       1  LIG1        0.0000
     33 H           0.3707    2.6136    3.0912 H       1  LIG1        0.0000
@<TRIPOS>BOND
     1     1     2    1
     2     2     3    1
     3     3     4   ar
     4     4     5   ar
     5     5     6   ar
     6     6     7   ar
     7     7     8   ar
     8     8     3   ar
     9     8     9    1
    10     9    10    1
    11    10    11   ar
    12    11    12   ar
    13    12    13   ar
    14    13    14    1
    15    14    15    1
    16    15    16    1
    17    13    17   ar
    18    17    18   ar
    19    18    10   ar
    20    18     2    1
    21     1    19    1
    22     1    20    1
    23     1    21    1
    24     4    22    1
    25     5    23    1
    26     6    24    1
    27     7    25    1
    28    11    26    1
    29    12    27    1
    30    14    28    1
    31    14    29    1
    32    15    30    1
    33    15    31    1
    34    16    32    1
    35    17    33    1
