@<TRIPOS>MOLECULE
*****
 33 35 0 0 0
SMALL
USER_CHARGES

@<TRIPOS>ATOM
      1 C1          0.2384    4.7126    4.7362 C.3     1  LIG1        0.0000
      2 N2          1.6225    4.2136    4.7907 N.pl3   1  LIG1        0.0000
      3 C3          2.4068    4.4954    5.9291 C.ar    1  LIG1        0.0000
      4 C4          1.8979    4.6273    7.2187 C.ar    1  LIG1        0.0000
      5 C5          2.7146    4.9004    8.3103 C.ar    1  LIG1        0.0000
      6 C6          4.0875    5.0360    8.1263 C.ar    1  LIG1        0.0000
      7 C7          4.6525    4.9163    6.8655 C.ar    1  LIG1        0.0000
      8 C8          3.7774    4.6594    5.8248 C.ar    1  LIG1        0.0000
      9 S9          4.4951    4.5324    4.2594 S.3     1  LIG1        0.0000
     10 C10         3.4568    3.4843    3.3603 C.ar    1  LIG1        0.0000
     11 C11         4.0656    2.7510    2.3548 C.ar    1  LIG1        0.0000
     12 C12         3.2389    1.9269    1.6080 C.ar    1  LIG1        0.0000
     13 C13         1.8770    1.8770    1.8770 C.ar    1  LIG1        0.0000
     14 C14         1.0000    1.0000    1.0000 C.3     1  LIG1        0.0000
     15 C15         0.9112   -0.3922    1.6035 C.3     1  LIG1        0.0000
     16 O16         0.0914   -1.2121    0.7836 O.3     1  LIG1        0.0000
     17 C17         1.3316    2.6225    2.9160 C.ar    1  LIG1        0.0000
     18 C18         2.1167    3.4543    3.7098 C.ar    1  LIG1        0.0000
     19 H           0.0372    5.2290    5.5686 H       1  LIG1        0.0000
     20 H           0.1299    5.3081    3.9401 H       1  LIG1        0.0000
     21 H          -0.3919    3.9398    4.6627 H       1  LIG1        0.0000
     22 H           0.9141    4.5223    7.3643 H       1  LIG1        0.0000
     23 H           2.3177    4.9989    9.2228 H       1  LIG1        0.0000
     24 H           4.6745    5.2224    8.9141 H       1  LIG1        0.0000
     25 H           5.6369    5.0103    6.7168 H       1  LIG1        0.0000
     26 H           5.0478    2.8130    2.1777 H       1  LIG1        0.0000
     27 H           3.6235    1.3671    0.8740 H       1  LIG1        0.0000
     28 H           1.3970    0.9416    0.0840 H       1  LIG1        0.0000
     29 H           0.0840    1.3970    0.9416 H       1  LIG1        0.0000
     30 H           1.8272   -0.7893    1.6619 H       1  LIG1        0.0000
     31 H           0.5142   -0.3338    2.5194 H       1  LIG1        0.0000
     32 H           0.0330   -2.1280    1.1806 H       1  LIG1        0.0000
     33 H           0.3502    2.5596    3.0979 H       1  LIG1        0.0000
@<TRIPOS>BOND
     1     1     2    1
     2     2     3    1
     3     3     4   ar
     4     4     5   ar
     5     5     6   ar
     6     6     7   ar
     7     7     8   ar
     8     8     3   ar
     9     8     9    1
    10     9    10    1
    11    10    11   ar
    12    11    12   ar
    13    12    13   ar
    14    13    14    1
    15    14    15    1
    16    15    16    1
    17    13    17   ar
    18    17    18   ar
    19    18    10   ar
    20    18     2    1
    21     1    19    1
    22     1    20    1
    23     1    21    1
    24     4    22    1
    25     5    23    1
    26     6    24    1
    27     7    25    1
    28    11    26    1
    29    12    27    1
    30    14    28    1
    31    14    29    1
    32    15    30    1
    33    15    31    1
    34    16    32    1
    35    17    33    1
