@<TRIPOS>MOLECULE
*****
 33 35 0 0 0
SMALL
USER_CHARGES

@<TRIPOS>ATOM
      1 C1          4.2654    5.1702    0.3278 C.3     1  LIG1        0.0000
      2 N2          4.5180    4.5388    1.6343 N.pl3   1  LIG1        0.0000
      3 C3          5.6891    4.8943    2.3406 C.ar    1  LIG1        0.0000
      4 C4          6.8901    5.2576    1.7345 C.ar    1  LIG1        0.0000
      5 C5          8.0195    5.5950    2.4710 C.ar    1  LIG1        0.0000
      6 C6          7.9763    5.5718    3.8600 C.ar    1  LIG1        0.0000
      7 C7          6.8101    5.2189    4.5227 C.ar    1  LIG1        0.0000
      8 C8          5.7182    4.9073    3.7293 C.ar    1  LIG1        0.0000
      9 S9          4.2582    4.5007    4.5631 S.3     1  LIG1        0.0000
     10 C10         3.3604    3.4637    3.5033 C.ar    1  LIG1        0.0000
     11 C11         2.4969    2.5610    4.1001 C.ar    1  LIG1        0.0000
     12 C12         1.7451    1.7551    3.2559 C.ar    1  LIG1        0.0000
     13 C13         1.8774    1.8774    1.8774 C.ar    1  LIG1        0.0000
     14 C14         1.0000    1.0000    1.0000 C.3     1  LIG1        0.0000
     15 C15         0.9112   -0.3922    1.6035 C.3     1  LIG1        0.0000
     16 O16        -0.3407   -0.9736    1.2702 O.3     1  LIG1        0.0000
     17 C17         2.7872    2.7880    1.3419 C.ar    1  LIG1        0.0000
     18 C18         3.5766    3.6159    2.1413 C.ar    1  LIG1        0.0000
     19 H           5.0158    5.7935    0.1081 H       1  LIG1        0.0000
     20 H           4.2017    4.4637   -0.3770 H       1  LIG1        0.0000
     21 H           3.4071    5.6819    0.3653 H       1  LIG1        0.0000
     22 H           6.9410    5.2763    0.7360 H       1  LIG1        0.0000
     23 H           8.8634    5.8544    2.0013 H       1  LIG1        0.0000
     24 H           8.7925    5.8114    4.3858 H       1  LIG1        0.0000
     25 H           6.7602    5.1909    5.5210 H       1  LIG1        0.0000
     26 H           2.4183    2.4925    5.0947 H       1  LIG1        0.0000
     27 H           1.1081    1.0864    3.6394 H       1  LIG1        0.0000
     28 H           1.3970    0.9416    0.0840 H       1  LIG1        0.0000
     29 H           0.0840    1.3970    0.9416 H       1  LIG1        0.0000
     30 H           1.6498   -0.9605    1.2407 H       1  LIG1        0.0000
     31 H           0.9959   -0.3305    2.5980 H       1  LIG1        0.0000
     32 H          -0.3991   -1.8896    1.6672 H       1  LIG1        0.0000
     33 H           2.8774    2.8502    0.3479 H       1  LIG1        0.0000
@<TRIPOS>BOND
     1     1     2    1
     2     2     3    1
     3     3     4   ar
     4     4     5   ar
     5     5     6   ar
     6     6     7   ar
     7     7     8   ar
     8     8     3   ar
     9     8     9    1
    10     9    10    1
    11    10    11   ar
    12    11    12   ar
    13    12    13   ar
    14    13    14    1
    15    14    15    1
    16    15    16    1
    17    13    17   ar
    18    17    18   ar
    19    18    10   ar
    20    18     2    1
    21     1    19    1
    22     1    20    1
    23     1    21    1
    24     4    22    1
    25     5    23    1
    26     6    24    1
    27     7    25    1
    28    11    26    1
    29    12    27    1
    30    14    28    1
    31    14    29    1
    32    15    30    1
    33    15    31    1
    34    16    32    1
    35    17    33    1
