@<TRIPOS>MOLECULE
*****
 33 35 0 0 0
SMALL
USER_CHARGES

@<TRIPOS>ATOM
      1 C1          0.0870    4.4711    4.8340 C.3     1  LIG1        0.0000
      2 N2          1.5310    4.2190    4.7627 N.pl3   1  LIG1        0.0000
      3 C3          2.3549    4.9597    5.6397 C.ar    1  LIG1        0.0000
      4 C4          1.8608    5.6958    6.7161 C.ar    1  LIG1        0.0000
      5 C5          2.6557    6.4678    7.5518 C.ar    1  LIG1        0.0000
      6 C6          4.0232    6.5423    7.3086 C.ar    1  LIG1        0.0000
      7 C7          4.6008    5.8308    6.2665 C.ar    1  LIG1        0.0000
      8 C8          3.7441    5.0667    5.4905 C.ar    1  LIG1        0.0000
      9 S9          4.6565    4.2715    4.2538 S.3     1  LIG1        0.0000
     10 C10         3.4526    3.3901    3.3889 C.ar    1  LIG1        0.0000
     11 C11         4.0789    2.6943    2.3767 C.ar    1  LIG1        0.0000
     12 C12         3.2315    1.9256    1.6038 C.ar    1  LIG1        0.0000
     13 C13         1.8734    1.8734    1.8734 C.ar    1  LIG1        0.0000
     14 C14         1.0000    1.0000    1.0000 C.3     1  LIG1        0.0000
     15 C15         0.9112   -0.3922    1.6035 C.3     1  LIG1        0.0000
     16 O16         0.0914   -1.2121    0.7836 O.3     1  LIG1        0.0000
     17 C17         1.3037    2.6075    2.9040 C.ar    1  LIG1        0.0000
     18 C18         2.0794    3.4214    3.7242 C.ar    1  LIG1        0.0000
     19 H          -0.1119    5.0485    5.6259 H       1  LIG1        0.0000
     20 H          -0.2121    4.9346    4.0000 H       1  LIG1        0.0000
     21 H          -0.3990    3.6019    4.9249 H       1  LIG1        0.0000
     22 H           0.8775    5.6659    6.8960 H       1  LIG1        0.0000
     23 H           2.2504    6.9642    8.3194 H       1  LIG1        0.0000
     24 H           4.5976    7.1162    7.8922 H       1  LIG1        0.0000
     25 H           5.5836    5.8676    6.0852 H       1  LIG1        0.0000
     26 H           5.0647    2.7423    2.2157 H       1  LIG1        0.0000
     27 H           3.6031    1.3992    0.8390 H       1  LIG1        0.0000
     28 H           1.3970    0.9416    0.0840 H       1  LIG1        0.0000
     29 H           0.0840    1.3970    0.9416 H       1  LIG1        0.0000
     30 H           1.8272   -0.7893    1.6619 H       1  LIG1        0.0000
     31 H           0.5142   -0.3338    2.5194 H       1  LIG1        0.0000
     32 H           0.0330   -2.1280    1.1806 H       1  LIG1        0.0000
     33 H           0.3176    2.5508    3.0602 H       1  LIG1        0.0000
@<TRIPOS>BOND
     1     1     2    1
     2     2     3    1
     3     3     4   ar
     4     4     5   ar
     5     5     6   ar
     6     6     7   ar
     7     7     8   ar
     8     8     3   ar
     9     8     9    1
    10     9    10    1
    11    10    11   ar
    12    11    12   ar
    13    12    13   ar
    14    13    14    1
    15    14    15    1
    16    15    16    1
    17    13    17   ar
    18    17    18   ar
    19    18    10   ar
    20    18     2    1
    21     1    19    1
    22     1    20    1
    23     1    21    1
    24     4    22    1
    25     5    23    1
    26     6    24    1
    27     7    25    1
    28    11    26    1
    29    12    27    1
    30    14    28    1
    31    14    29    1
    32    15    30    1
    33    15    31    1
    34    16    32    1
    35    17    33    1
