@<TRIPOS>MOLECULE
*****
 33 35 0 0 0
SMALL
USER_CHARGES

@<TRIPOS>ATOM
      1 C1          5.8258    0.6459    3.2155 C.3     1  LIG1        0.0000
      2 N2          5.3714    2.0463    3.2091 N.pl3   1  LIG1        0.0000
      3 C3          6.3107    3.0712    3.4493 C.ar    1  LIG1        0.0000
      4 C4          7.6533    3.0055    3.0851 C.ar    1  LIG1        0.0000
      5 C5          8.5391    4.0465    3.3398 C.ar    1  LIG1        0.0000
      6 C6          8.0818    5.2023    3.9658 C.ar    1  LIG1        0.0000
      7 C7          6.7558    5.3258    4.3527 C.ar    1  LIG1        0.0000
      8 C8          5.9359    4.2447    4.0810 C.ar    1  LIG1        0.0000
      9 S9          4.2928    4.4074    4.5866 S.3     1  LIG1        0.0000
     10 C10         3.3781    3.4179    3.5053 C.ar    1  LIG1        0.0000
     11 C11         2.0694    3.8161    3.2859 C.ar    1  LIG1        0.0000
     12 C12         1.3163    3.0154    2.4421 C.ar    1  LIG1        0.0000
     13 C13         1.8770    1.8770    1.8770 C.ar    1  LIG1        0.0000
     14 C14         1.0000    1.0000    1.0000 C.3     1  LIG1        0.0000
     15 C15         0.9112   -0.3922    1.6035 C.3     1  LIG1        0.0000
     16 O16         0.5073   -1.3165    0.6039 O.3     1  LIG1        0.0000
     17 C17         3.2048    1.5447    2.1205 C.ar    1  LIG1        0.0000
     18 C18         4.0134    2.3213    2.9461 C.ar    1  LIG1        0.0000
     19 H           6.8051    0.6141    3.4155 H       1  LIG1        0.0000
     20 H           5.3259    0.1364    3.9158 H       1  LIG1        0.0000
     21 H           5.6552    0.2359    2.3195 H       1  LIG1        0.0000
     22 H           7.9909    2.1837    2.6261 H       1  LIG1        0.0000
     23 H           9.4998    3.9651    3.0745 H       1  LIG1        0.0000
     24 H           8.7181    5.9540    4.1389 H       1  LIG1        0.0000
     25 H           6.4115    6.1498    4.8028 H       1  LIG1        0.0000
     26 H           1.6891    4.6364    3.7130 H       1  LIG1        0.0000
     27 H           0.3675    3.2576    2.2396 H       1  LIG1        0.0000
     28 H           1.3970    0.9416    0.0840 H       1  LIG1        0.0000
     29 H           0.0840    1.3970    0.9416 H       1  LIG1        0.0000
     30 H           1.8064   -0.6582    1.9612 H       1  LIG1        0.0000
     31 H           0.2421   -0.3914    2.3466 H       1  LIG1        0.0000
     32 H           0.4489   -2.2324    1.0010 H       1  LIG1        0.0000
     33 H           3.5889    0.7270    1.6918 H       1  LIG1        0.0000
@<TRIPOS>BOND
     1     1     2    1
     2     2     3    1
     3     3     4   ar
     4     4     5   ar
     5     5     6   ar
     6     6     7   ar
     7     7     8   ar
     8     8     3   ar
     9     8     9    1
    10     9    10    1
    11    10    11   ar
    12    11    12   ar
    13    12    13   ar
    14    13    14    1
    15    14    15    1
    16    15    16    1
    17    13    17   ar
    18    17    18   ar
    19    18    10   ar
    20    18     2    1
    21     1    19    1
    22     1    20    1
    23     1    21    1
    24     4    22    1
    25     5    23    1
    26     6    24    1
    27     7    25    1
    28    11    26    1
    29    12    27    1
    30    14    28    1
    31    14    29    1
    32    15    30    1
    33    15    31    1
    34    16    32    1
    35    17    33    1
