@<TRIPOS>MOLECULE
*****
 33 35 0 0 0
SMALL
USER_CHARGES

@<TRIPOS>ATOM
      1 C1          1.3171    2.1934    6.1766 C.3     1  LIG1        0.0000
      2 N2          2.5635    2.5726    5.4907 N.pl3   1  LIG1        0.0000
      3 C3          3.7090    2.8596    6.2627 C.ar    1  LIG1        0.0000
      4 C4          4.0025    2.2576    7.4838 C.ar    1  LIG1        0.0000
      5 C5          5.1493    2.5713    8.2047 C.ar    1  LIG1        0.0000
      6 C6          6.0481    3.5048    7.6970 C.ar    1  LIG1        0.0000
      7 C7          5.8095    4.1382    6.4866 C.ar    1  LIG1        0.0000
      8 C8          4.6417    3.7876    5.8323 C.ar    1  LIG1        0.0000
      9 S9          4.3507    4.5997    4.3364 S.3     1  LIG1        0.0000
     10 C10         3.3937    3.5089    3.3987 C.ar    1  LIG1        0.0000
     11 C11         3.5301    3.6170    2.0243 C.ar    1  LIG1        0.0000
     12 C12         2.7474    2.7665    1.2599 C.ar    1  LIG1        0.0000
     13 C13         1.8770    1.8770    1.8770 C.ar    1  LIG1        0.0000
     14 C14         1.0000    1.0000    1.0000 C.3     1  LIG1        0.0000
     15 C15         0.9112   -0.3922    1.6035 C.3     1  LIG1        0.0000
     16 O16        -0.2290   -1.0611    1.0849 O.3     1  LIG1        0.0000
     17 C17         1.8037    1.8029    3.2633 C.ar    1  LIG1        0.0000
     18 C18         2.5787    2.6209    4.0813 C.ar    1  LIG1        0.0000
     19 H           1.4642    2.2048    7.1657 H       1  LIG1        0.0000
     20 H           0.5951    2.8435    5.9395 H       1  LIG1        0.0000
     21 H           1.0454    1.2745    5.8906 H       1  LIG1        0.0000
     22 H           3.3687    1.5783    7.8536 H       1  LIG1        0.0000
     23 H           5.3273    2.1286    9.0835 H       1  LIG1        0.0000
     24 H           6.8773    3.7217    8.2121 H       1  LIG1        0.0000
     25 H           6.4456    4.8105    6.1079 H       1  LIG1        0.0000
     26 H           4.1590    4.2729    1.6067 H       1  LIG1        0.0000
     27 H           2.8094    2.7931    0.2622 H       1  LIG1        0.0000
     28 H           1.3970    0.9416    0.0840 H       1  LIG1        0.0000
     29 H           0.0840    1.3970    0.9416 H       1  LIG1        0.0000
     30 H           1.7351   -0.9093    1.3715 H       1  LIG1        0.0000
     31 H           0.8318   -0.3202    2.5977 H       1  LIG1        0.0000
     32 H          -0.2874   -1.9770    1.4819 H       1  LIG1        0.0000
     33 H           1.1785    1.1455    3.6838 H       1  LIG1        0.0000
@<TRIPOS>BOND
     1     1     2    1
     2     2     3    1
     3     3     4   ar
     4     4     5   ar
     5     5     6   ar
     6     6     7   ar
     7     7     8   ar
     8     8     3   ar
     9     8     9    1
    10     9    10    1
    11    10    11   ar
    12    11    12   ar
    13    12    13   ar
    14    13    14    1
    15    14    15    1
    16    15    16    1
    17    13    17   ar
    18    17    18   ar
    19    18    10   ar
    20    18     2    1
    21     1    19    1
    22     1    20    1
    23     1    21    1
    24     4    22    1
    25     5    23    1
    26     6    24    1
    27     7    25    1
    28    11    26    1
    29    12    27    1
    30    14    28    1
    31    14    29    1
    32    15    30    1
    33    15    31    1
    34    16    32    1
    35    17    33    1
