@<TRIPOS>MOLECULE
*****
 33 35 0 0 0
SMALL
USER_CHARGES

@<TRIPOS>ATOM
      1 C1          6.2197    1.7455    1.7220 C.3     1  LIG1        0.0000
      2 N2          5.4620    2.8709    2.2938 N.pl3   1  LIG1        0.0000
      3 C3          6.1474    4.0588    2.6251 C.ar    1  LIG1        0.0000
      4 C4          7.2647    4.5353    1.9439 C.ar    1  LIG1        0.0000
      5 C5          7.9023    5.7165    2.3066 C.ar    1  LIG1        0.0000
      6 C6          7.4124    6.4638    3.3736 C.ar    1  LIG1        0.0000
      7 C7          6.3037    6.0399    4.0907 C.ar    1  LIG1        0.0000
      8 C8          5.7303    4.8484    3.6829 C.ar    1  LIG1        0.0000
      9 S9          4.3628    4.3255    4.5985 S.3     1  LIG1        0.0000
     10 C10         3.4108    3.3833    3.5072 C.ar    1  LIG1        0.0000
     11 C11         2.0487    3.3633    3.7594 C.ar    1  LIG1        0.0000
     12 C12         1.2770    2.5890    2.9079 C.ar    1  LIG1        0.0000
     13 C13         1.8770    1.8770    1.8770 C.ar    1  LIG1        0.0000
     14 C14         1.0000    1.0000    1.0000 C.3     1  LIG1        0.0000
     15 C15         0.9112   -0.3922    1.6035 C.3     1  LIG1        0.0000
     16 O16         0.0914   -1.2121    0.7836 O.3     1  LIG1        0.0000
     17 C17         3.2485    1.9575    1.6640 C.ar    1  LIG1        0.0000
     18 C18         4.0705    2.7329    2.4774 C.ar    1  LIG1        0.0000
     19 H           7.1860    1.9942    1.6546 H       1  LIG1        0.0000
     20 H           6.1222    0.9440    2.3119 H       1  LIG1        0.0000
     21 H           5.8657    1.5339    0.8110 H       1  LIG1        0.0000
     22 H           7.6197    4.0115    1.1695 H       1  LIG1        0.0000
     23 H           8.7086    6.0274    1.8034 H       1  LIG1        0.0000
     24 H           7.8662    7.3183    3.6266 H       1  LIG1        0.0000
     25 H           5.9391    6.5657    4.8592 H       1  LIG1        0.0000
     26 H           1.6446    3.8793    4.5147 H       1  LIG1        0.0000
     27 H           0.2863    2.5427    3.0357 H       1  LIG1        0.0000
     28 H           1.3970    0.9416    0.0840 H       1  LIG1        0.0000
     29 H           0.0840    1.3970    0.9416 H       1  LIG1        0.0000
     30 H           1.8272   -0.7893    1.6619 H       1  LIG1        0.0000
     31 H           0.5142   -0.3338    2.5194 H       1  LIG1        0.0000
     32 H           0.0330   -2.1280    1.1806 H       1  LIG1        0.0000
     33 H           3.6549    1.4455    0.9073 H       1  LIG1        0.0000
@<TRIPOS>BOND
     1     1     2    1
     2     2     3    1
     3     3     4   ar
     4     4     5   ar
     5     5     6   ar
     6     6     7   ar
     7     7     8   ar
     8     8     3   ar
     9     8     9    1
    10     9    10    1
    11    10    11   ar
    12    11    12   ar
    13    12    13   ar
    14    13    14    1
    15    14    15    1
    16    15    16    1
    17    13    17   ar
    18    17    18   ar
    19    18    10   ar
    20    18     2    1
    21     1    19    1
    22     1    20    1
    23     1    21    1
    24     4    22    1
    25     5    23    1
    26     6    24    1
    27     7    25    1
    28    11    26    1
    29    12    27    1
    30    14    28    1
    31    14    29    1
    32    15    30    1
    33    15    31    1
    34    16    32    1
    35    17    33    1
