@<TRIPOS>MOLECULE
*****
 33 35 0 0 0
SMALL
USER_CHARGES

@<TRIPOS>ATOM
      1 C1          5.8322    0.6830    3.2482 C.3     1  LIG1        0.0000
      2 N2          5.0495    1.7548    3.8869 N.pl3   1  LIG1        0.0000
      3 C3          5.5202    2.3023    5.1015 C.ar    1  LIG1        0.0000
      4 C4          6.2377    1.5866    6.0579 C.ar    1  LIG1        0.0000
      5 C5          6.6765    2.1665    7.2423 C.ar    1  LIG1        0.0000
      6 C6          6.3985    3.5024    7.5072 C.ar    1  LIG1        0.0000
      7 C7          5.6886    4.2684    6.5947 C.ar    1  LIG1        0.0000
      8 C8          5.2927    3.6328    5.4293 C.ar    1  LIG1        0.0000
      9 S9          4.4369    4.6036    4.2815 S.3     1  LIG1        0.0000
     10 C10         3.4342    3.5200    3.3732 C.ar    1  LIG1        0.0000
     11 C11         2.2741    4.0496    2.8344 C.ar    1  LIG1        0.0000
     12 C12         1.4867    3.1973    2.0720 C.ar    1  LIG1        0.0000
     13 C13         1.8774    1.8774    1.8774 C.ar    1  LIG1        0.0000
     14 C14         1.0000    1.0000    1.0000 C.3     1  LIG1        0.0000
     15 C15         0.9112   -0.3922    1.6035 C.3     1  LIG1        0.0000
     16 O16         0.5073   -1.3165    0.6039 O.3     1  LIG1        0.0000
     17 C17         3.0443    1.4002    2.4726 C.ar    1  LIG1        0.0000
     18 C18         3.8689    2.2075    3.2574 C.ar    1  LIG1        0.0000
     19 H           6.6327    0.4747    3.8101 H       1  LIG1        0.0000
     20 H           5.2652   -0.1360    3.1591 H       1  LIG1        0.0000
     21 H           6.1300    0.9825    2.3418 H       1  LIG1        0.0000
     22 H           6.4438    0.6232    5.8863 H       1  LIG1        0.0000
     23 H           7.1925    1.6226    7.9041 H       1  LIG1        0.0000
     24 H           6.7128    3.9144    8.3625 H       1  LIG1        0.0000
     25 H           5.4737    5.2294    6.7689 H       1  LIG1        0.0000
     26 H           2.0148    5.0032    2.9874 H       1  LIG1        0.0000
     27 H           0.6383    3.5329    1.6627 H       1  LIG1        0.0000
     28 H           1.3970    0.9416    0.0840 H       1  LIG1        0.0000
     29 H           0.0840    1.3970    0.9416 H       1  LIG1        0.0000
     30 H           1.8064   -0.6582    1.9612 H       1  LIG1        0.0000
     31 H           0.2421   -0.3914    2.3466 H       1  LIG1        0.0000
     32 H           0.4489   -2.2324    1.0010 H       1  LIG1        0.0000
     33 H           3.2999    0.4437    2.3319 H       1  LIG1        0.0000
@<TRIPOS>BOND
     1     1     2    1
     2     2     3    1
     3     3     4   ar
     4     4     5   ar
     5     5     6   ar
     6     6     7   ar
     7     7     8   ar
     8     8     3   ar
     9     8     9    1
    10     9    10    1
    11    10    11   ar
    12    11    12   ar
    13    12    13   ar
    14    13    14    1
    15    14    15    1
    16    15    16    1
    17    13    17   ar
    18    17    18   ar
    19    18    10   ar
    20    18     2    1
    21     1    19    1
    22     1    20    1
    23     1    21    1
    24     4    22    1
    25     5    23    1
    26     6    24    1
    27     7    25    1
    28    11    26    1
    29    12    27    1
    30    14    28    1
    31    14    29    1
    32    15    30    1
    33    15    31    1
    34    16    32    1
    35    17    33    1
