@<TRIPOS>MOLECULE
*****
 33 35 0 0 0
SMALL
USER_CHARGES

@<TRIPOS>ATOM
      1 C1          5.1410    4.2647    0.2815 C.3     1  LIG1        0.0000
      2 N2          4.5210    4.5119    1.5938 N.pl3   1  LIG1        0.0000
      3 C3          4.8452    5.6946    2.2914 C.ar    1  LIG1        0.0000
      4 C4          5.1600    6.9050    1.6788 C.ar    1  LIG1        0.0000
      5 C5          5.4676    8.0455    2.4122 C.ar    1  LIG1        0.0000
      6 C6          5.4518    7.9951    3.8029 C.ar    1  LIG1        0.0000
      7 C7          5.1467    6.8180    4.4696 C.ar    1  LIG1        0.0000
      8 C8          4.8661    5.7201    3.6754 C.ar    1  LIG1        0.0000
      9 S9          4.5072    4.2582    4.5215 S.3     1  LIG1        0.0000
     10 C10         3.4738    3.3587    3.4688 C.ar    1  LIG1        0.0000
     11 C11         2.5841    2.4973    4.0900 C.ar    1  LIG1        0.0000
     12 C12         1.7684    1.7494    3.2560 C.ar    1  LIG1        0.0000
     13 C13         1.8770    1.8770    1.8770 C.ar    1  LIG1        0.0000
     14 C14         1.0000    1.0000    1.0000 C.3     1  LIG1        0.0000
     15 C15         0.9112   -0.3922    1.6035 C.3     1  LIG1        0.0000
     16 O16         0.0914   -1.2121    0.7836 O.3     1  LIG1        0.0000
     17 C17         2.7763    2.7771    1.3167 C.ar    1  LIG1        0.0000
     18 C18         3.6085    3.5663    2.1059 C.ar    1  LIG1        0.0000
     19 H           5.7590    5.0183    0.0575 H       1  LIG1        0.0000
     20 H           5.6569    3.4086    0.3126 H       1  LIG1        0.0000
     21 H           4.4283    4.1992   -0.4169 H       1  LIG1        0.0000
     22 H           5.1651    6.9555    0.6801 H       1  LIG1        0.0000
     23 H           5.6990    8.8977    1.9428 H       1  LIG1        0.0000
     24 H           5.6634    8.8190    4.3286 H       1  LIG1        0.0000
     25 H           5.1304    6.7655    5.4681 H       1  LIG1        0.0000
     26 H           2.5334    2.4195    5.0856 H       1  LIG1        0.0000
     27 H           1.1004    1.1167    3.6476 H       1  LIG1        0.0000
     28 H           1.3970    0.9416    0.0840 H       1  LIG1        0.0000
     29 H           0.0840    1.3970    0.9416 H       1  LIG1        0.0000
     30 H           1.8272   -0.7893    1.6619 H       1  LIG1        0.0000
     31 H           0.5142   -0.3338    2.5194 H       1  LIG1        0.0000
     32 H           0.0330   -2.1280    1.1806 H       1  LIG1        0.0000
     33 H           2.8266    2.8597    0.3214 H       1  LIG1        0.0000
@<TRIPOS>BOND
     1     1     2    1
     2     2     3    1
     3     3     4   ar
     4     4     5   ar
     5     5     6   ar
     6     6     7   ar
     7     7     8   ar
     8     8     3   ar
     9     8     9    1
    10     9    10    1
    11    10    11   ar
    12    11    12   ar
    13    12    13   ar
    14    13    14    1
    15    14    15    1
    16    15    16    1
    17    13    17   ar
    18    17    18   ar
    19    18    10   ar
    20    18     2    1
    21     1    19    1
    22     1    20    1
    23     1    21    1
    24     4    22    1
    25     5    23    1
    26     6    24    1
    27     7    25    1
    28    11    26    1
    29    12    27    1
    30    14    28    1
    31    14    29    1
    32    15    30    1
    33    15    31    1
    34    16    32    1
    35    17    33    1
