@<TRIPOS>MOLECULE
*****
 33 35 0 0 0
SMALL
USER_CHARGES

@<TRIPOS>ATOM
      1 C1          5.6619    3.3403    0.3900 C.3     1  LIG1        0.0000
      2 N2          5.0562    3.8181    1.6384 N.pl3   1  LIG1        0.0000
      3 C3          5.8220    4.7107    2.4216 C.ar    1  LIG1        0.0000
      4 C4          6.9717    5.3466    1.9543 C.ar    1  LIG1        0.0000
      5 C5          7.7593    6.1843    2.7317 C.ar    1  LIG1        0.0000
      6 C6          7.4124    6.4004    4.0612 C.ar    1  LIG1        0.0000
      7 C7          6.2762    5.8176    4.6044 C.ar    1  LIG1        0.0000
      8 C8          5.5307    5.0118    3.7588 C.ar    1  LIG1        0.0000
      9 S9          4.1717    4.3837    4.6265 S.3     1  LIG1        0.0000
     10 C10         3.3745    3.4098    3.4473 C.ar    1  LIG1        0.0000
     11 C11         2.2505    2.8666    4.0328 C.ar    1  LIG1        0.0000
     12 C12         1.4996    2.0679    3.1934 C.ar    1  LIG1        0.0000
     13 C13         1.8734    1.8734    1.8734 C.ar    1  LIG1        0.0000
     14 C14         1.0000    1.0000    1.0000 C.3     1  LIG1        0.0000
     15 C15         0.9112   -0.3922    1.6035 C.3     1  LIG1        0.0000
     16 O16        -0.2290   -1.0611    1.0849 O.3     1  LIG1        0.0000
     17 C17         3.0245    2.4429    1.3478 C.ar    1  LIG1        0.0000
     18 C18         3.8498    3.2499    2.1254 C.ar    1  LIG1        0.0000
     19 H           6.5002    3.8542    0.2082 H       1  LIG1        0.0000
     20 H           5.8789    2.3679    0.4756 H       1  LIG1        0.0000
     21 H           5.0192    3.4731   -0.3646 H       1  LIG1        0.0000
     22 H           7.2444    5.1900    1.0050 H       1  LIG1        0.0000
     23 H           8.5662    6.6271    2.3407 H       1  LIG1        0.0000
     24 H           7.9894    6.9834    4.6332 H       1  LIG1        0.0000
     25 H           6.0094    5.9711    5.5558 H       1  LIG1        0.0000
     26 H           2.0001    3.0369    4.9858 H       1  LIG1        0.0000
     27 H           0.6747    1.6237    3.5429 H       1  LIG1        0.0000
     28 H           1.3970    0.9416    0.0840 H       1  LIG1        0.0000
     29 H           0.0840    1.3970    0.9416 H       1  LIG1        0.0000
     30 H           1.7351   -0.9093    1.3715 H       1  LIG1        0.0000
     31 H           0.8318   -0.3202    2.5977 H       1  LIG1        0.0000
     32 H          -0.2874   -1.9770    1.4819 H       1  LIG1        0.0000
     33 H           3.2655    2.2703    0.3928 H       1  LIG1        0.0000
@<TRIPOS>BOND
     1     1     2    1
     2     2     3    1
     3     3     4   ar
     4     4     5   ar
     5     5     6   ar
     6     6     7   ar
     7     7     8   ar
     8     8     3   ar
     9     8     9    1
    10     9    10    1
    11    10    11   ar
    12    11    12   ar
    13    12    13   ar
    14    13    14    1
    15    14    15    1
    16    15    16    1
    17    13    17   ar
    18    17    18   ar
    19    18    10   ar
    20    18     2    1
    21     1    19    1
    22     1    20    1
    23     1    21    1
    24     4    22    1
    25     5    23    1
    26     6    24    1
    27     7    25    1
    28    11    26    1
    29    12    27    1
    30    14    28    1
    31    14    29    1
    32    15    30    1
    33    15    31    1
    34    16    32    1
    35    17    33    1
