@<TRIPOS>MOLECULE
*****
 33 35 0 0 0
SMALL
USER_CHARGES

@<TRIPOS>ATOM
      1 C1          6.1744    1.7903    1.4273 C.3     1  LIG1        0.0000
      2 N2          5.4775    2.7894    2.2458 N.pl3   1  LIG1        0.0000
      3 C3          6.2813    3.6765    2.9965 C.ar    1  LIG1        0.0000
      4 C4          7.6544    3.8193    2.7990 C.ar    1  LIG1        0.0000
      5 C5          8.4612    4.6491    3.5650 C.ar    1  LIG1        0.0000
      6 C6          7.8929    5.3737    4.6075 C.ar    1  LIG1        0.0000
      7 C7          6.5313    5.3013    4.8656 C.ar    1  LIG1        0.0000
      8 C8          5.7901    4.4675    4.0437 C.ar    1  LIG1        0.0000
      9 S9          4.1314    4.5164    4.5341 S.3     1  LIG1        0.0000
     10 C10         3.3685    3.4309    3.4322 C.ar    1  LIG1        0.0000
     11 C11         2.0210    3.4056    3.7233 C.ar    1  LIG1        0.0000
     12 C12         1.2757    2.5817    2.9035 C.ar    1  LIG1        0.0000
     13 C13         1.8734    1.8734    1.8734 C.ar    1  LIG1        0.0000
     14 C14         1.0000    1.0000    1.0000 C.3     1  LIG1        0.0000
     15 C15         0.9112   -0.3922    1.6035 C.3     1  LIG1        0.0000
     16 O16         0.0914   -1.2121    0.7836 O.3     1  LIG1        0.0000
     17 C17         3.2398    1.9360    1.6395 C.ar    1  LIG1        0.0000
     18 C18         4.0706    2.7286    2.4258 C.ar    1  LIG1        0.0000
     19 H           7.1536    1.9932    1.4158 H       1  LIG1        0.0000
     20 H           6.0271    0.8803    1.8150 H       1  LIG1        0.0000
     21 H           5.8176    1.8166    0.4936 H       1  LIG1        0.0000
     22 H           8.0821    3.2937    2.0636 H       1  LIG1        0.0000
     23 H           9.4390    4.7251    3.3699 H       1  LIG1        0.0000
     24 H           8.4731    5.9545    5.1784 H       1  LIG1        0.0000
     25 H           6.1073    5.8233    5.6057 H       1  LIG1        0.0000
     26 H           1.6171    3.9395    4.4662 H       1  LIG1        0.0000
     27 H           0.2911    2.4950    3.0552 H       1  LIG1        0.0000
     28 H           1.3970    0.9416    0.0840 H       1  LIG1        0.0000
     29 H           0.0840    1.3970    0.9416 H       1  LIG1        0.0000
     30 H           1.8272   -0.7893    1.6619 H       1  LIG1        0.0000
     31 H           0.5142   -0.3338    2.5194 H       1  LIG1        0.0000
     32 H           0.0330   -2.1280    1.1806 H       1  LIG1        0.0000
     33 H           3.6348    1.4016    0.8922 H       1  LIG1        0.0000
@<TRIPOS>BOND
     1     1     2    1
     2     2     3    1
     3     3     4   ar
     4     4     5   ar
     5     5     6   ar
     6     6     7   ar
     7     7     8   ar
     8     8     3   ar
     9     8     9    1
    10     9    10    1
    11    10    11   ar
    12    11    12   ar
    13    12    13   ar
    14    13    14    1
    15    14    15    1
    16    15    16    1
    17    13    17   ar
    18    17    18   ar
    19    18    10   ar
    20    18     2    1
    21     1    19    1
    22     1    20    1
    23     1    21    1
    24     4    22    1
    25     5    23    1
    26     6    24    1
    27     7    25    1
    28    11    26    1
    29    12    27    1
    30    14    28    1
    31    14    29    1
    32    15    30    1
    33    15    31    1
    34    16    32    1
    35    17    33    1
