@<TRIPOS>MOLECULE

  36   37
SMALL
USER_CHARGES
@<TRIPOS>ATOM
   1 C1          -0.7039     6.1358    -0.1703 C.3          1    LIG   0.0000
   2 C2          -1.2924     4.8305     0.3398 C.3          1    LIG   0.0000
   3 C3          -2.7817     4.7940     0.0380 C.3          1    LIG   0.0000
   4 C4          -0.6067     3.6615    -0.3499 C.3          1    LIG   0.0000
   5 C5           0.8376     3.5505     0.1088 C.3          1    LIG   0.0000
   6 C6           1.1573     2.0656     0.0415 C.ar         1    LIG   0.0000
   7 C7           2.3851     1.4121     0.0028 C.ar         1    LIG   0.0000
   8 C8           2.4128     0.0220    -0.0207 C.ar         1    LIG   0.0000
   9 C9           1.2139    -0.6813    -0.0062 C.ar         1    LIG   0.0000
  10 C10          1.2290    -2.1987    -0.0175 C.3          1    LIG   0.0000
  11 C11          0.4872    -2.7037    -1.2444 C.3          1    LIG   0.0000
  12 C12          0.5483    -2.7216     1.2369 C.2          1    LIG   0.0000
  13 O13         -0.6359    -3.1187     1.1862 O.co2        1    LIG   0.0000
  14 O14          1.1527    -2.7536     2.2847 O.co2        1    LIG  -1.0000
  15 C15         -0.0125    -0.0298     0.0287 C.ar         1    LIG   0.0000
  16 C16         -0.0288     1.3588     0.0568 C.ar         1    LIG   0.0000
  17 C17         -1.1774     2.3478     0.1431 C.3          1    LIG   0.0000
  18 H           -0.6693     3.7366    -1.3451 H            1    LIG   0.0000
  19 H            2.1748    -2.5225    -0.0431 H            1    LIG   0.0000
  20 H           -1.1548     6.9045     0.2832 H            1    LIG   0.0000
  21 H            0.2759     6.1597     0.0282 H            1    LIG   0.0000
  22 H           -0.8456     6.2018    -1.1580 H            1    LIG   0.0000
  23 H           -1.1507     4.7644     1.3275 H            1    LIG   0.0000
  24 H           -3.2326     5.5628     0.4916 H            1    LIG   0.0000
  25 H           -2.9234     4.8600    -0.9497 H            1    LIG   0.0000
  26 H           -3.1689     3.9353     0.3737 H            1    LIG   0.0000
  27 H            1.4402     4.0678    -0.4988 H            1    LIG   0.0000
  28 H            0.9365     3.8895     1.0443 H            1    LIG   0.0000
  29 H            3.2370     1.9356    -0.0080 H            1    LIG   0.0000
  30 H            3.2852    -0.4661    -0.0478 H            1    LIG   0.0000
  31 H            0.4972    -3.7036    -1.2519 H            1    LIG   0.0000
  32 H           -0.4586    -2.3799    -1.2188 H            1    LIG   0.0000
  33 H            0.9351    -2.3597    -2.0697 H            1    LIG   0.0000
  34 H           -0.8665    -0.5501     0.0336 H            1    LIG   0.0000
  35 H           -1.4947     2.4355     1.0874 H            1    LIG   0.0000
  36 H           -1.9368     2.0551    -0.4379 H            1    LIG   0.0000
@<TRIPOS>BOND
   1        1        2 1
   2        2        3 1
   3        2        4 1
   4        4        5 1
   5        5        6 1
   6        6        7 ar
   7        7        8 ar
   8        8        9 ar
   9        9       10 1
  10       10       11 1
  11       10       12 1
  12       12       13 ar
  13       12       14 ar
  14        9       15 ar
  15       15       16 ar
  16       16        6 ar
  17       16       17 1
  18       17        4 1
  19        4       18 1
  20       10       19 1
  21        1       20 1
  22        1       21 1
  23        1       22 1
  24        2       23 1
  25        3       24 1
  26        3       25 1
  27        3       26 1
  28        5       27 1
  29        5       28 1
  30        7       29 1
  31        8       30 1
  32       11       31 1
  33       11       32 1
  34       11       33 1
  35       15       34 1
  36       17       35 1
  37       17       36 1

@<TRIPOS>MOLECULE

  36   37
SMALL
USER_CHARGES
@<TRIPOS>ATOM
   1 C1          -0.7039     6.1358    -0.1703 C.3          1    LIG   0.0000
   2 C2          -1.2924     4.8305     0.3398 C.3          1    LIG   0.0000
   3 C3          -2.7817     4.7940     0.0380 C.3          1    LIG   0.0000
   4 C4          -0.6067     3.6615    -0.3499 C.3          1    LIG   0.0000
   5 C5           0.8376     3.5505     0.1088 C.3          1    LIG   0.0000
   6 C6           1.1573     2.0656     0.0415 C.ar         1    LIG   0.0000
   7 C7           2.3851     1.4121     0.0028 C.ar         1    LIG   0.0000
   8 C8           2.4128     0.0220    -0.0207 C.ar         1    LIG   0.0000
   9 C9           1.2139    -0.6813    -0.0062 C.ar         1    LIG   0.0000
  10 C10          1.2290    -2.1987    -0.0175 C.3          1    LIG   0.0000
  11 C11          2.4571    -2.6876    -0.7681 C.3          1    LIG   0.0000
  12 C12         -0.0242    -2.7128    -0.7072 C.2          1    LIG   0.0000
  13 O13          0.0274    -3.0889    -1.8981 O.co2        1    LIG   0.0000
  14 O14         -1.0718    -2.7579    -0.1034 O.co2        1    LIG  -1.0000
  15 C15         -0.0125    -0.0298     0.0287 C.ar         1    LIG   0.0000
  16 C16         -0.0288     1.3588     0.0568 C.ar         1    LIG   0.0000
  17 C17         -1.1774     2.3478     0.1431 C.3          1    LIG   0.0000
  18 H           -0.6693     3.7366    -1.3451 H            1    LIG   0.0000
  19 H            1.2555    -2.5389     0.9225 H            1    LIG   0.0000
  20 H           -1.1548     6.9045     0.2832 H            1    LIG   0.0000
  21 H            0.2759     6.1597     0.0282 H            1    LIG   0.0000
  22 H           -0.8456     6.2018    -1.1580 H            1    LIG   0.0000
  23 H           -1.1507     4.7644     1.3275 H            1    LIG   0.0000
  24 H           -3.2326     5.5628     0.4916 H            1    LIG   0.0000
  25 H           -2.9234     4.8600    -0.9497 H            1    LIG   0.0000
  26 H           -3.1689     3.9353     0.3737 H            1    LIG   0.0000
  27 H            1.4402     4.0678    -0.4988 H            1    LIG   0.0000
  28 H            0.9365     3.8895     1.0443 H            1    LIG   0.0000
  29 H            3.2370     1.9356    -0.0080 H            1    LIG   0.0000
  30 H            3.2852    -0.4661    -0.0478 H            1    LIG   0.0000
  31 H            2.4670    -3.6875    -0.7756 H            1    LIG   0.0000
  32 H            2.4305    -2.3475    -1.7081 H            1    LIG   0.0000
  33 H            3.2815    -2.3494    -0.3143 H            1    LIG   0.0000
  34 H           -0.8665    -0.5501     0.0336 H            1    LIG   0.0000
  35 H           -1.4947     2.4355     1.0874 H            1    LIG   0.0000
  36 H           -1.9368     2.0551    -0.4379 H            1    LIG   0.0000
@<TRIPOS>BOND
   1        1        2 1
   2        2        3 1
   3        2        4 1
   4        4        5 1
   5        5        6 1
   6        6        7 ar
   7        7        8 ar
   8        8        9 ar
   9        9       10 1
  10       10       11 1
  11       10       12 1
  12       12       13 ar
  13       12       14 ar
  14        9       15 ar
  15       15       16 ar
  16       16        6 ar
  17       16       17 1
  18       17        4 1
  19        4       18 1
  20       10       19 1
  21        1       20 1
  22        1       21 1
  23        1       22 1
  24        2       23 1
  25        3       24 1
  26        3       25 1
  27        3       26 1
  28        5       27 1
  29        5       28 1
  30        7       29 1
  31        8       30 1
  32       11       31 1
  33       11       32 1
  34       11       33 1
  35       15       34 1
  36       17       35 1
  37       17       36 1

@<TRIPOS>MOLECULE

  36   37
SMALL
USER_CHARGES
@<TRIPOS>ATOM
   1 C1          -0.7039     6.1358    -0.1703 C.3          1    LIG   0.0000
   2 C2          -1.2924     4.8305     0.3398 C.3          1    LIG   0.0000
   3 C3          -2.7817     4.7940     0.0380 C.3          1    LIG   0.0000
   4 C4          -0.6067     3.6615    -0.3499 C.3          1    LIG   0.0000
   5 C5           0.8376     3.5505     0.1088 C.3          1    LIG   0.0000
   6 C6           1.1573     2.0656     0.0415 C.ar         1    LIG   0.0000
   7 C7           2.3851     1.4121     0.0028 C.ar         1    LIG   0.0000
   8 C8           2.4128     0.0220    -0.0207 C.ar         1    LIG   0.0000
   9 C9           1.2139    -0.6813    -0.0062 C.ar         1    LIG   0.0000
  10 C10          1.2290    -2.1987    -0.0175 C.3          1    LIG   0.0000
  11 C11          2.4571    -2.6876    -0.7681 C.3          1    LIG   0.0000
  12 C12         -0.0242    -2.7128    -0.7072 C.2          1    LIG   0.0000
  13 O13         -0.4094    -3.8856    -0.5106 O.co2        1    LIG   0.0000
  14 O14         -0.6490    -1.9867    -1.4465 O.co2        1    LIG  -1.0000
  15 C15         -0.0125    -0.0298     0.0287 C.ar         1    LIG   0.0000
  16 C16         -0.0288     1.3588     0.0568 C.ar         1    LIG   0.0000
  17 C17         -1.1774     2.3478     0.1431 C.3          1    LIG   0.0000
  18 H           -0.6693     3.7366    -1.3451 H            1    LIG   0.0000
  19 H            1.2555    -2.5389     0.9225 H            1    LIG   0.0000
  20 H           -1.1548     6.9045     0.2832 H            1    LIG   0.0000
  21 H            0.2759     6.1597     0.0282 H            1    LIG   0.0000
  22 H           -0.8456     6.2018    -1.1580 H            1    LIG   0.0000
  23 H           -1.1507     4.7644     1.3275 H            1    LIG   0.0000
  24 H           -3.2326     5.5628     0.4916 H            1    LIG   0.0000
  25 H           -2.9234     4.8600    -0.9497 H            1    LIG   0.0000
  26 H           -3.1689     3.9353     0.3737 H            1    LIG   0.0000
  27 H            1.4402     4.0678    -0.4988 H            1    LIG   0.0000
  28 H            0.9365     3.8895     1.0443 H            1    LIG   0.0000
  29 H            3.2370     1.9356    -0.0080 H            1    LIG   0.0000
  30 H            3.2852    -0.4661    -0.0478 H            1    LIG   0.0000
  31 H            2.4670    -3.6875    -0.7756 H            1    LIG   0.0000
  32 H            2.4305    -2.3475    -1.7081 H            1    LIG   0.0000
  33 H            3.2815    -2.3494    -0.3143 H            1    LIG   0.0000
  34 H           -0.8665    -0.5501     0.0336 H            1    LIG   0.0000
  35 H           -1.4947     2.4355     1.0874 H            1    LIG   0.0000
  36 H           -1.9368     2.0551    -0.4379 H            1    LIG   0.0000
@<TRIPOS>BOND
   1        1        2 1
   2        2        3 1
   3        2        4 1
   4        4        5 1
   5        5        6 1
   6        6        7 ar
   7        7        8 ar
   8        8        9 ar
   9        9       10 1
  10       10       11 1
  11       10       12 1
  12       12       13 ar
  13       12       14 ar
  14        9       15 ar
  15       15       16 ar
  16       16        6 ar
  17       16       17 1
  18       17        4 1
  19        4       18 1
  20       10       19 1
  21        1       20 1
  22        1       21 1
  23        1       22 1
  24        2       23 1
  25        3       24 1
  26        3       25 1
  27        3       26 1
  28        5       27 1
  29        5       28 1
  30        7       29 1
  31        8       30 1
  32       11       31 1
  33       11       32 1
  34       11       33 1
  35       15       34 1
  36       17       35 1
  37       17       36 1

@<TRIPOS>MOLECULE

  36   37
SMALL
USER_CHARGES
@<TRIPOS>ATOM
   1 C1          -0.7039     6.1358    -0.1703 C.3          1    LIG   0.0000
   2 C2          -1.2924     4.8305     0.3398 C.3          1    LIG   0.0000
   3 C3          -2.7817     4.7940     0.0380 C.3          1    LIG   0.0000
   4 C4          -0.6067     3.6615    -0.3499 C.3          1    LIG   0.0000
   5 C5           0.8376     3.5505     0.1088 C.3          1    LIG   0.0000
   6 C6           1.1573     2.0656     0.0415 C.ar         1    LIG   0.0000
   7 C7           2.3851     1.4121     0.0028 C.ar         1    LIG   0.0000
   8 C8           2.4128     0.0220    -0.0207 C.ar         1    LIG   0.0000
   9 C9           1.2139    -0.6813    -0.0062 C.ar         1    LIG   0.0000
  10 C10          1.2290    -2.1987    -0.0175 C.3          1    LIG   0.0000
  11 C11          0.0110    -2.7232     0.7254 C.3          1    LIG   0.0000
  12 C12          2.4923    -2.6980     0.6645 C.2          1    LIG   0.0000
  13 O13          2.4484    -3.0929     1.8497 O.co2        1    LIG   0.0000
  14 O14          3.5405    -2.7131     0.0603 O.co2        1    LIG  -1.0000
  15 C15         -0.0125    -0.0298     0.0287 C.ar         1    LIG   0.0000
  16 C16         -0.0288     1.3588     0.0568 C.ar         1    LIG   0.0000
  17 C17         -1.1774     2.3478     0.1431 C.3          1    LIG   0.0000
  18 H           -0.6693     3.7366    -1.3451 H            1    LIG   0.0000
  19 H            1.2091    -2.5252    -0.9625 H            1    LIG   0.0000
  20 H           -1.1548     6.9045     0.2832 H            1    LIG   0.0000
  21 H            0.2759     6.1597     0.0282 H            1    LIG   0.0000
  22 H           -0.8456     6.2018    -1.1580 H            1    LIG   0.0000
  23 H           -1.1507     4.7644     1.3275 H            1    LIG   0.0000
  24 H           -3.2326     5.5628     0.4916 H            1    LIG   0.0000
  25 H           -2.9234     4.8600    -0.9497 H            1    LIG   0.0000
  26 H           -3.1689     3.9353     0.3737 H            1    LIG   0.0000
  27 H            1.4402     4.0678    -0.4988 H            1    LIG   0.0000
  28 H            0.9365     3.8895     1.0443 H            1    LIG   0.0000
  29 H            3.2370     1.9356    -0.0080 H            1    LIG   0.0000
  30 H            3.2852    -0.4661    -0.0478 H            1    LIG   0.0000
  31 H            0.0210    -3.7231     0.7179 H            1    LIG   0.0000
  32 H            0.0309    -2.3967     1.6704 H            1    LIG   0.0000
  33 H           -0.8201    -2.3947     0.2767 H            1    LIG   0.0000
  34 H           -0.8665    -0.5501     0.0336 H            1    LIG   0.0000
  35 H           -1.4947     2.4355     1.0874 H            1    LIG   0.0000
  36 H           -1.9368     2.0551    -0.4379 H            1    LIG   0.0000
@<TRIPOS>BOND
   1        1        2 1
   2        2        3 1
   3        2        4 1
   4        4        5 1
   5        5        6 1
   6        6        7 ar
   7        7        8 ar
   8        8        9 ar
   9        9       10 1
  10       10       11 1
  11       10       12 1
  12       12       13 ar
  13       12       14 ar
  14        9       15 ar
  15       15       16 ar
  16       16        6 ar
  17       16       17 1
  18       17        4 1
  19        4       18 1
  20       10       19 1
  21        1       20 1
  22        1       21 1
  23        1       22 1
  24        2       23 1
  25        3       24 1
  26        3       25 1
  27        3       26 1
  28        5       27 1
  29        5       28 1
  30        7       29 1
  31        8       30 1
  32       11       31 1
  33       11       32 1
  34       11       33 1
  35       15       34 1
  36       17       35 1
  37       17       36 1

@<TRIPOS>MOLECULE

  36   37
SMALL
USER_CHARGES
@<TRIPOS>ATOM
   1 C1          -0.7039     6.1358    -0.1703 C.3          1    LIG   0.0000
   2 C2          -1.2924     4.8305     0.3398 C.3          1    LIG   0.0000
   3 C3          -2.7817     4.7940     0.0380 C.3          1    LIG   0.0000
   4 C4          -0.6067     3.6615    -0.3499 C.3          1    LIG   0.0000
   5 C5           0.8376     3.5505     0.1088 C.3          1    LIG   0.0000
   6 C6           1.1573     2.0656     0.0415 C.ar         1    LIG   0.0000
   7 C7           2.3851     1.4121     0.0028 C.ar         1    LIG   0.0000
   8 C8           2.4128     0.0220    -0.0207 C.ar         1    LIG   0.0000
   9 C9           1.2139    -0.6813    -0.0062 C.ar         1    LIG   0.0000
  10 C10          1.2290    -2.1987    -0.0175 C.3          1    LIG   0.0000
  11 C11          0.0110    -2.7232     0.7254 C.3          1    LIG   0.0000
  12 C12          2.4923    -2.6980     0.6645 C.2          1    LIG   0.0000
  13 O13          2.9008    -3.8598     0.4504 O.co2        1    LIG   0.0000
  14 O14          3.1026    -1.9707     1.4147 O.co2        1    LIG  -1.0000
  15 C15         -0.0125    -0.0298     0.0287 C.ar         1    LIG   0.0000
  16 C16         -0.0288     1.3588     0.0568 C.ar         1    LIG   0.0000
  17 C17         -1.1774     2.3478     0.1431 C.3          1    LIG   0.0000
  18 H           -0.6693     3.7366    -1.3451 H            1    LIG   0.0000
  19 H            1.2091    -2.5252    -0.9625 H            1    LIG   0.0000
  20 H           -1.1548     6.9045     0.2832 H            1    LIG   0.0000
  21 H            0.2759     6.1597     0.0282 H            1    LIG   0.0000
  22 H           -0.8456     6.2018    -1.1580 H            1    LIG   0.0000
  23 H           -1.1507     4.7644     1.3275 H            1    LIG   0.0000
  24 H           -3.2326     5.5628     0.4916 H            1    LIG   0.0000
  25 H           -2.9234     4.8600    -0.9497 H            1    LIG   0.0000
  26 H           -3.1689     3.9353     0.3737 H            1    LIG   0.0000
  27 H            1.4402     4.0678    -0.4988 H            1    LIG   0.0000
  28 H            0.9365     3.8895     1.0443 H            1    LIG   0.0000
  29 H            3.2370     1.9356    -0.0080 H            1    LIG   0.0000
  30 H            3.2852    -0.4661    -0.0478 H            1    LIG   0.0000
  31 H            0.0210    -3.7231     0.7179 H            1    LIG   0.0000
  32 H            0.0309    -2.3967     1.6704 H            1    LIG   0.0000
  33 H           -0.8201    -2.3947     0.2767 H            1    LIG   0.0000
  34 H           -0.8665    -0.5501     0.0336 H            1    LIG   0.0000
  35 H           -1.4947     2.4355     1.0874 H            1    LIG   0.0000
  36 H           -1.9368     2.0551    -0.4379 H            1    LIG   0.0000
@<TRIPOS>BOND
   1        1        2 1
   2        2        3 1
   3        2        4 1
   4        4        5 1
   5        5        6 1
   6        6        7 ar
   7        7        8 ar
   8        8        9 ar
   9        9       10 1
  10       10       11 1
  11       10       12 1
  12       12       13 ar
  13       12       14 ar
  14        9       15 ar
  15       15       16 ar
  16       16        6 ar
  17       16       17 1
  18       17        4 1
  19        4       18 1
  20       10       19 1
  21        1       20 1
  22        1       21 1
  23        1       22 1
  24        2       23 1
  25        3       24 1
  26        3       25 1
  27        3       26 1
  28        5       27 1
  29        5       28 1
  30        7       29 1
  31        8       30 1
  32       11       31 1
  33       11       32 1
  34       11       33 1
  35       15       34 1
  36       17       35 1
  37       17       36 1

@<TRIPOS>MOLECULE

  36   37
SMALL
USER_CHARGES
@<TRIPOS>ATOM
   1 C1          -0.7039     6.1358    -0.1703 C.3          1    LIG   0.0000
   2 C2          -1.2924     4.8305     0.3398 C.3          1    LIG   0.0000
   3 C3          -2.7817     4.7940     0.0380 C.3          1    LIG   0.0000
   4 C4          -0.6067     3.6615    -0.3499 C.3          1    LIG   0.0000
   5 C5           0.8376     3.5505     0.1088 C.3          1    LIG   0.0000
   6 C6           1.1573     2.0656     0.0415 C.ar         1    LIG   0.0000
   7 C7           2.3851     1.4121     0.0028 C.ar         1    LIG   0.0000
   8 C8           2.4128     0.0220    -0.0207 C.ar         1    LIG   0.0000
   9 C9           1.2139    -0.6813    -0.0062 C.ar         1    LIG   0.0000
  10 C10          1.2290    -2.1987    -0.0175 C.3          1    LIG   0.0000
  11 C11          1.9809    -2.7071     1.2018 C.3          1    LIG   0.0000
  12 C12          1.9198    -2.6891    -1.2796 C.2          1    LIG   0.0000
  13 O13          3.1117    -3.0632    -1.2346 O.co2        1    LIG   0.0000
  14 O14          1.3160    -2.7174    -2.3278 O.co2        1    LIG  -1.0000
  15 C15         -0.0125    -0.0298     0.0287 C.ar         1    LIG   0.0000
  16 C16         -0.0288     1.3588     0.0568 C.ar         1    LIG   0.0000
  17 C17         -1.1774     2.3478     0.1431 C.3          1    LIG   0.0000
  18 H           -0.6693     3.7366    -1.3451 H            1    LIG   0.0000
  19 H            0.2898    -2.5416     0.0031 H            1    LIG   0.0000
  20 H           -1.1548     6.9045     0.2832 H            1    LIG   0.0000
  21 H            0.2759     6.1597     0.0282 H            1    LIG   0.0000
  22 H           -0.8456     6.2018    -1.1580 H            1    LIG   0.0000
  23 H           -1.1507     4.7644     1.3275 H            1    LIG   0.0000
  24 H           -3.2326     5.5628     0.4916 H            1    LIG   0.0000
  25 H           -2.9234     4.8600    -0.9497 H            1    LIG   0.0000
  26 H           -3.1689     3.9353     0.3737 H            1    LIG   0.0000
  27 H            1.4402     4.0678    -0.4988 H            1    LIG   0.0000
  28 H            0.9365     3.8895     1.0443 H            1    LIG   0.0000
  29 H            3.2370     1.9356    -0.0080 H            1    LIG   0.0000
  30 H            3.2852    -0.4661    -0.0478 H            1    LIG   0.0000
  31 H            1.9908    -3.7070     1.1943 H            1    LIG   0.0000
  32 H            2.9200    -2.3642     1.1811 H            1    LIG   0.0000
  33 H            1.5264    -2.3845     2.0321 H            1    LIG   0.0000
  34 H           -0.8665    -0.5501     0.0336 H            1    LIG   0.0000
  35 H           -1.4947     2.4355     1.0874 H            1    LIG   0.0000
  36 H           -1.9368     2.0551    -0.4379 H            1    LIG   0.0000
@<TRIPOS>BOND
   1        1        2 1
   2        2        3 1
   3        2        4 1
   4        4        5 1
   5        5        6 1
   6        6        7 ar
   7        7        8 ar
   8        8        9 ar
   9        9       10 1
  10       10       11 1
  11       10       12 1
  12       12       13 ar
  13       12       14 ar
  14        9       15 ar
  15       15       16 ar
  16       16        6 ar
  17       16       17 1
  18       17        4 1
  19        4       18 1
  20       10       19 1
  21        1       20 1
  22        1       21 1
  23        1       22 1
  24        2       23 1
  25        3       24 1
  26        3       25 1
  27        3       26 1
  28        5       27 1
  29        5       28 1
  30        7       29 1
  31        8       30 1
  32       11       31 1
  33       11       32 1
  34       11       33 1
  35       15       34 1
  36       17       35 1
  37       17       36 1

@<TRIPOS>MOLECULE

  36   37
SMALL
USER_CHARGES
@<TRIPOS>ATOM
   1 C1          -1.1964     6.0655    -0.5410 C.3          1    LIG   0.0000
   2 C2          -1.2924     4.8305     0.3398 C.3          1    LIG   0.0000
   3 C3          -2.7546     4.4909     0.5786 C.3          1    LIG   0.0000
   4 C4          -0.6067     3.6615    -0.3499 C.3          1    LIG   0.0000
   5 C5           0.8376     3.5505     0.1088 C.3          1    LIG   0.0000
   6 C6           1.1573     2.0656     0.0415 C.ar         1    LIG   0.0000
   7 C7           2.3851     1.4121     0.0028 C.ar         1    LIG   0.0000
   8 C8           2.4128     0.0220    -0.0207 C.ar         1    LIG   0.0000
   9 C9           1.2139    -0.6813    -0.0062 C.ar         1    LIG   0.0000
  10 C10          1.2290    -2.1987    -0.0175 C.3          1    LIG   0.0000
  11 C11          1.9809    -2.7071     1.2018 C.3          1    LIG   0.0000
  12 C12          1.9198    -2.6891    -1.2796 C.2          1    LIG   0.0000
  13 O13          1.2995    -3.4079    -2.0926 O.co2        1    LIG   0.0000
  14 O14          3.0702    -2.3837    -1.4972 O.co2        1    LIG  -1.0000
  15 C15         -0.0125    -0.0298     0.0287 C.ar         1    LIG   0.0000
  16 C16         -0.0288     1.3588     0.0568 C.ar         1    LIG   0.0000
  17 C17         -1.1774     2.3478     0.1431 C.3          1    LIG   0.0000
  18 H           -0.6693     3.7366    -1.3451 H            1    LIG   0.0000
  19 H            0.2898    -2.5416     0.0031 H            1    LIG   0.0000
  20 H           -1.6473     6.8343    -0.0874 H            1    LIG   0.0000
  21 H           -0.2344     6.2889    -0.6981 H            1    LIG   0.0000
  22 H           -1.6442     5.8860    -1.4168 H            1    LIG   0.0000
  23 H           -0.8445     5.0100     1.2157 H            1    LIG   0.0000
  24 H           -3.2055     5.2597     1.0322 H            1    LIG   0.0000
  25 H           -3.2025     4.3114    -0.2972 H            1    LIG   0.0000
  26 H           -2.8178     3.6784     1.1581 H            1    LIG   0.0000
  27 H            1.4402     4.0678    -0.4988 H            1    LIG   0.0000
  28 H            0.9365     3.8895     1.0443 H            1    LIG   0.0000
  29 H            3.2370     1.9356    -0.0080 H            1    LIG   0.0000
  30 H            3.2852    -0.4661    -0.0478 H            1    LIG   0.0000
  31 H            1.9908    -3.7070     1.1943 H            1    LIG   0.0000
  32 H            2.9200    -2.3642     1.1811 H            1    LIG   0.0000
  33 H            1.5264    -2.3845     2.0321 H            1    LIG   0.0000
  34 H           -0.8665    -0.5501     0.0336 H            1    LIG   0.0000
  35 H           -1.4947     2.4355     1.0874 H            1    LIG   0.0000
  36 H           -1.9368     2.0551    -0.4379 H            1    LIG   0.0000
@<TRIPOS>BOND
   1        1        2 1
   2        2        3 1
   3        2        4 1
   4        4        5 1
   5        5        6 1
   6        6        7 ar
   7        7        8 ar
   8        8        9 ar
   9        9       10 1
  10       10       11 1
  11       10       12 1
  12       12       13 ar
  13       12       14 ar
  14        9       15 ar
  15       15       16 ar
  16       16        6 ar
  17       16       17 1
  18       17        4 1
  19        4       18 1
  20       10       19 1
  21        1       20 1
  22        1       21 1
  23        1       22 1
  24        2       23 1
  25        3       24 1
  26        3       25 1
  27        3       26 1
  28        5       27 1
  29        5       28 1
  30        7       29 1
  31        8       30 1
  32       11       31 1
  33       11       32 1
  34       11       33 1
  35       15       34 1
  36       17       35 1
  37       17       36 1

@<TRIPOS>MOLECULE

  36   37
SMALL
USER_CHARGES
@<TRIPOS>ATOM
   1 C1          -0.0283     5.0417     2.4005 C.3          1    LIG   0.0000
   2 C2          -0.6456     3.7219     1.9676 C.3          1    LIG   0.0000
   3 C3          -2.0841     3.6517     2.4536 C.3          1    LIG   0.0000
   4 C4          -0.6177     3.6226     0.4488 C.3          1    LIG   0.0000
   5 C5           0.7894     3.5075    -0.0983 C.3          1    LIG   0.0000
   6 C6           1.1286     2.0295    -0.0505 C.ar         1    LIG   0.0000
   7 C7           2.3787     1.4086    -0.0332 C.ar         1    LIG   0.0000
   8 C8           2.4101     0.0182    -0.0177 C.ar         1    LIG   0.0000
   9 C9           1.2094    -0.6830    -0.0156 C.ar         1    LIG   0.0000
  10 C10          1.2299    -2.1997    -0.0176 C.3          1    LIG   0.0000
  11 C11          0.5204    -2.7144    -1.2594 C.3          1    LIG   0.0000
  12 C12          0.5202    -2.7177     1.2227 C.2          1    LIG   0.0000
  13 O13         -0.6610    -3.1192     1.1451 O.co2        1    LIG   0.0000
  14 O14          1.0987    -2.7414     2.2852 O.co2        1    LIG  -1.0000
  15 C15         -0.0287    -0.0489    -0.0148 C.ar         1    LIG   0.0000
  16 C16         -0.0657     1.3382    -0.0365 C.ar         1    LIG   0.0000
  17 C17         -1.2197     2.3265    -0.0597 C.3          1    LIG   0.0000
  18 H           -1.0859     4.4065     0.0409 H            1    LIG   0.0000
  19 H            2.1772    -2.5203    -0.0180 H            1    LIG   0.0000
  20 H           -0.0466     5.1069     3.3982 H            1    LIG   0.0000
  21 H            0.9181     5.0879     2.0807 H            1    LIG   0.0000
  22 H           -0.5503     5.7987     2.0074 H            1    LIG   0.0000
  23 H           -0.1236     2.9649     2.3607 H            1    LIG   0.0000
  24 H           -2.1024     3.7168     3.4513 H            1    LIG   0.0000
  25 H           -2.6060     4.4086     2.0605 H            1    LIG   0.0000
  26 H           -2.4901     2.7833     2.1688 H            1    LIG   0.0000
  27 H            0.8261     3.8434    -1.0395 H            1    LIG   0.0000
  28 H            1.4273     4.0302     0.4673 H            1    LIG   0.0000
  29 H            3.2227     1.9450    -0.0320 H            1    LIG   0.0000
  30 H            3.2829    -0.4698    -0.0082 H            1    LIG   0.0000
  31 H            0.5340    -3.7143    -1.2608 H            1    LIG   0.0000
  32 H           -0.4268    -2.3939    -1.2591 H            1    LIG   0.0000
  33 H            0.9873    -2.3736    -2.0754 H            1    LIG   0.0000
  34 H           -0.8747    -0.5817     0.0010 H            1    LIG   0.0000
  35 H           -1.9593     2.0208     0.5400 H            1    LIG   0.0000
  36 H           -1.5698     2.4399    -0.9895 H            1    LIG   0.0000
@<TRIPOS>BOND
   1        1        2 1
   2        2        3 1
   3        2        4 1
   4        4        5 1
   5        5        6 1
   6        6        7 ar
   7        7        8 ar
   8        8        9 ar
   9        9       10 1
  10       10       11 1
  11       10       12 1
  12       12       13 ar
  13       12       14 ar
  14        9       15 ar
  15       15       16 ar
  16       16        6 ar
  17       16       17 1
  18       17        4 1
  19        4       18 1
  20       10       19 1
  21        1       20 1
  22        1       21 1
  23        1       22 1
  24        2       23 1
  25        3       24 1
  26        3       25 1
  27        3       26 1
  28        5       27 1
  29        5       28 1
  30        7       29 1
  31        8       30 1
  32       11       31 1
  33       11       32 1
  34       11       33 1
  35       15       34 1
  36       17       35 1
  37       17       36 1

@<TRIPOS>MOLECULE

  36   37
SMALL
USER_CHARGES
@<TRIPOS>ATOM
   1 C1          -0.0283     5.0417     2.4005 C.3          1    LIG   0.0000
   2 C2          -0.6456     3.7219     1.9676 C.3          1    LIG   0.0000
   3 C3          -2.0841     3.6517     2.4536 C.3          1    LIG   0.0000
   4 C4          -0.6177     3.6226     0.4488 C.3          1    LIG   0.0000
   5 C5           0.7894     3.5075    -0.0983 C.3          1    LIG   0.0000
   6 C6           1.1286     2.0295    -0.0505 C.ar         1    LIG   0.0000
   7 C7           2.3787     1.4086    -0.0332 C.ar         1    LIG   0.0000
   8 C8           2.4101     0.0182    -0.0177 C.ar         1    LIG   0.0000
   9 C9           1.2094    -0.6830    -0.0156 C.ar         1    LIG   0.0000
  10 C10          1.2299    -2.1997    -0.0176 C.3          1    LIG   0.0000
  11 C11          0.5204    -2.7144    -1.2594 C.3          1    LIG   0.0000
  12 C12          0.5202    -2.7177     1.2227 C.2          1    LIG   0.0000
  13 O13          1.1374    -3.4291     2.0446 O.co2        1    LIG   0.0000
  14 O14         -0.6421    -2.4414     1.4145 O.co2        1    LIG  -1.0000
  15 C15         -0.0287    -0.0489    -0.0148 C.ar         1    LIG   0.0000
  16 C16         -0.0657     1.3382    -0.0365 C.ar         1    LIG   0.0000
  17 C17         -1.2197     2.3265    -0.0597 C.3          1    LIG   0.0000
  18 H           -1.0859     4.4065     0.0409 H            1    LIG   0.0000
  19 H            2.1772    -2.5203    -0.0180 H            1    LIG   0.0000
  20 H           -0.0466     5.1069     3.3982 H            1    LIG   0.0000
  21 H            0.9181     5.0879     2.0807 H            1    LIG   0.0000
  22 H           -0.5503     5.7987     2.0074 H            1    LIG   0.0000
  23 H           -0.1236     2.9649     2.3607 H            1    LIG   0.0000
  24 H           -2.1024     3.7168     3.4513 H            1    LIG   0.0000
  25 H           -2.6060     4.4086     2.0605 H            1    LIG   0.0000
  26 H           -2.4901     2.7833     2.1688 H            1    LIG   0.0000
  27 H            0.8261     3.8434    -1.0395 H            1    LIG   0.0000
  28 H            1.4273     4.0302     0.4673 H            1    LIG   0.0000
  29 H            3.2227     1.9450    -0.0320 H            1    LIG   0.0000
  30 H            3.2829    -0.4698    -0.0082 H            1    LIG   0.0000
  31 H            0.5340    -3.7143    -1.2608 H            1    LIG   0.0000
  32 H           -0.4268    -2.3939    -1.2591 H            1    LIG   0.0000
  33 H            0.9873    -2.3736    -2.0754 H            1    LIG   0.0000
  34 H           -0.8747    -0.5817     0.0010 H            1    LIG   0.0000
  35 H           -1.9593     2.0208     0.5400 H            1    LIG   0.0000
  36 H           -1.5698     2.4399    -0.9895 H            1    LIG   0.0000
@<TRIPOS>BOND
   1        1        2 1
   2        2        3 1
   3        2        4 1
   4        4        5 1
   5        5        6 1
   6        6        7 ar
   7        7        8 ar
   8        8        9 ar
   9        9       10 1
  10       10       11 1
  11       10       12 1
  12       12       13 ar
  13       12       14 ar
  14        9       15 ar
  15       15       16 ar
  16       16        6 ar
  17       16       17 1
  18       17        4 1
  19        4       18 1
  20       10       19 1
  21        1       20 1
  22        1       21 1
  23        1       22 1
  24        2       23 1
  25        3       24 1
  26        3       25 1
  27        3       26 1
  28        5       27 1
  29        5       28 1
  30        7       29 1
  31        8       30 1
  32       11       31 1
  33       11       32 1
  34       11       33 1
  35       15       34 1
  36       17       35 1
  37       17       36 1

@<TRIPOS>MOLECULE

  36   37
SMALL
USER_CHARGES
@<TRIPOS>ATOM
   1 C1          -0.0283     5.0417     2.4005 C.3          1    LIG   0.0000
   2 C2          -0.6456     3.7219     1.9676 C.3          1    LIG   0.0000
   3 C3          -2.0841     3.6517     2.4536 C.3          1    LIG   0.0000
   4 C4          -0.6177     3.6226     0.4488 C.3          1    LIG   0.0000
   5 C5           0.7894     3.5075    -0.0983 C.3          1    LIG   0.0000
   6 C6           1.1286     2.0295    -0.0505 C.ar         1    LIG   0.0000
   7 C7           2.3787     1.4086    -0.0332 C.ar         1    LIG   0.0000
   8 C8           2.4101     0.0182    -0.0177 C.ar         1    LIG   0.0000
   9 C9           1.2094    -0.6830    -0.0156 C.ar         1    LIG   0.0000
  10 C10          1.2299    -2.1997    -0.0176 C.3          1    LIG   0.0000
  11 C11          2.4778    -2.6886    -0.7347 C.3          1    LIG   0.0000
  12 C12         -0.0041    -2.7222    -0.7349 C.2          1    LIG   0.0000
  13 O13          0.0782    -3.1051    -1.9220 O.co2        1    LIG   0.0000
  14 O14         -1.0661    -2.7675    -0.1569 O.co2        1    LIG  -1.0000
  15 C15         -0.0287    -0.0489    -0.0148 C.ar         1    LIG   0.0000
  16 C16         -0.0657     1.3382    -0.0365 C.ar         1    LIG   0.0000
  17 C17         -1.2197     2.3265    -0.0597 C.3          1    LIG   0.0000
  18 H           -1.0859     4.4065     0.0409 H            1    LIG   0.0000
  19 H            1.2344    -2.5343     0.9248 H            1    LIG   0.0000
  20 H           -0.0466     5.1069     3.3982 H            1    LIG   0.0000
  21 H            0.9181     5.0879     2.0807 H            1    LIG   0.0000
  22 H           -0.5503     5.7987     2.0074 H            1    LIG   0.0000
  23 H           -0.1236     2.9649     2.3607 H            1    LIG   0.0000
  24 H           -2.1024     3.7168     3.4513 H            1    LIG   0.0000
  25 H           -2.6060     4.4086     2.0605 H            1    LIG   0.0000
  26 H           -2.4901     2.7833     2.1688 H            1    LIG   0.0000
  27 H            0.8261     3.8434    -1.0395 H            1    LIG   0.0000
  28 H            1.4273     4.0302     0.4673 H            1    LIG   0.0000
  29 H            3.2227     1.9450    -0.0320 H            1    LIG   0.0000
  30 H            3.2829    -0.4698    -0.0082 H            1    LIG   0.0000
  31 H            2.4914    -3.6885    -0.7360 H            1    LIG   0.0000
  32 H            2.4734    -2.3540    -1.6771 H            1    LIG   0.0000
  33 H            3.2897    -2.3448    -0.2628 H            1    LIG   0.0000
  34 H           -0.8747    -0.5817     0.0010 H            1    LIG   0.0000
  35 H           -1.9593     2.0208     0.5400 H            1    LIG   0.0000
  36 H           -1.5698     2.4399    -0.9895 H            1    LIG   0.0000
@<TRIPOS>BOND
   1        1        2 1
   2        2        3 1
   3        2        4 1
   4        4        5 1
   5        5        6 1
   6        6        7 ar
   7        7        8 ar
   8        8        9 ar
   9        9       10 1
  10       10       11 1
  11       10       12 1
  12       12       13 ar
  13       12       14 ar
  14        9       15 ar
  15       15       16 ar
  16       16        6 ar
  17       16       17 1
  18       17        4 1
  19        4       18 1
  20       10       19 1
  21        1       20 1
  22        1       21 1
  23        1       22 1
  24        2       23 1
  25        3       24 1
  26        3       25 1
  27        3       26 1
  28        5       27 1
  29        5       28 1
  30        7       29 1
  31        8       30 1
  32       11       31 1
  33       11       32 1
  34       11       33 1
  35       15       34 1
  36       17       35 1
  37       17       36 1

@<TRIPOS>MOLECULE

  36   37
SMALL
USER_CHARGES
@<TRIPOS>ATOM
   1 C1          -0.0283     5.0417     2.4005 C.3          1    LIG   0.0000
   2 C2          -0.6456     3.7219     1.9676 C.3          1    LIG   0.0000
   3 C3          -2.0841     3.6517     2.4536 C.3          1    LIG   0.0000
   4 C4          -0.6177     3.6226     0.4488 C.3          1    LIG   0.0000
   5 C5           0.7894     3.5075    -0.0983 C.3          1    LIG   0.0000
   6 C6           1.1286     2.0295    -0.0505 C.ar         1    LIG   0.0000
   7 C7           2.3787     1.4086    -0.0332 C.ar         1    LIG   0.0000
   8 C8           2.4101     0.0182    -0.0177 C.ar         1    LIG   0.0000
   9 C9           1.2094    -0.6830    -0.0156 C.ar         1    LIG   0.0000
  10 C10          1.2299    -2.1997    -0.0176 C.3          1    LIG   0.0000
  11 C11          2.4778    -2.6886    -0.7347 C.3          1    LIG   0.0000
  12 C12         -0.0041    -2.7222    -0.7349 C.2          1    LIG   0.0000
  13 O13         -0.3900    -3.8952    -0.5410 O.co2        1    LIG   0.0000
  14 O14         -0.6129    -2.0026    -1.4937 O.co2        1    LIG  -1.0000
  15 C15         -0.0287    -0.0489    -0.0148 C.ar         1    LIG   0.0000
  16 C16         -0.0657     1.3382    -0.0365 C.ar         1    LIG   0.0000
  17 C17         -1.2197     2.3265    -0.0597 C.3          1    LIG   0.0000
  18 H           -1.0859     4.4065     0.0409 H            1    LIG   0.0000
  19 H            1.2344    -2.5343     0.9248 H            1    LIG   0.0000
  20 H           -0.0466     5.1069     3.3982 H            1    LIG   0.0000
  21 H            0.9181     5.0879     2.0807 H            1    LIG   0.0000
  22 H           -0.5503     5.7987     2.0074 H            1    LIG   0.0000
  23 H           -0.1236     2.9649     2.3607 H            1    LIG   0.0000
  24 H           -2.1024     3.7168     3.4513 H            1    LIG   0.0000
  25 H           -2.6060     4.4086     2.0605 H            1    LIG   0.0000
  26 H           -2.4901     2.7833     2.1688 H            1    LIG   0.0000
  27 H            0.8261     3.8434    -1.0395 H            1    LIG   0.0000
  28 H            1.4273     4.0302     0.4673 H            1    LIG   0.0000
  29 H            3.2227     1.9450    -0.0320 H            1    LIG   0.0000
  30 H            3.2829    -0.4698    -0.0082 H            1    LIG   0.0000
  31 H            2.4914    -3.6885    -0.7360 H            1    LIG   0.0000
  32 H            2.4734    -2.3540    -1.6771 H            1    LIG   0.0000
  33 H            3.2897    -2.3448    -0.2628 H            1    LIG   0.0000
  34 H           -0.8747    -0.5817     0.0010 H            1    LIG   0.0000
  35 H           -1.9593     2.0208     0.5400 H            1    LIG   0.0000
  36 H           -1.5698     2.4399    -0.9895 H            1    LIG   0.0000
@<TRIPOS>BOND
   1        1        2 1
   2        2        3 1
   3        2        4 1
   4        4        5 1
   5        5        6 1
   6        6        7 ar
   7        7        8 ar
   8        8        9 ar
   9        9       10 1
  10       10       11 1
  11       10       12 1
  12       12       13 ar
  13       12       14 ar
  14        9       15 ar
  15       15       16 ar
  16       16        6 ar
  17       16       17 1
  18       17        4 1
  19        4       18 1
  20       10       19 1
  21        1       20 1
  22        1       21 1
  23        1       22 1
  24        2       23 1
  25        3       24 1
  26        3       25 1
  27        3       26 1
  28        5       27 1
  29        5       28 1
  30        7       29 1
  31        8       30 1
  32       11       31 1
  33       11       32 1
  34       11       33 1
  35       15       34 1
  36       17       35 1
  37       17       36 1

@<TRIPOS>MOLECULE

  36   37
SMALL
USER_CHARGES
@<TRIPOS>ATOM
   1 C1          -0.0283     5.0417     2.4005 C.3          1    LIG   0.0000
   2 C2          -0.6456     3.7219     1.9676 C.3          1    LIG   0.0000
   3 C3          -2.0841     3.6517     2.4536 C.3          1    LIG   0.0000
   4 C4          -0.6177     3.6226     0.4488 C.3          1    LIG   0.0000
   5 C5           0.7894     3.5075    -0.0983 C.3          1    LIG   0.0000
   6 C6           1.1286     2.0295    -0.0505 C.ar         1    LIG   0.0000
   7 C7           2.3787     1.4086    -0.0332 C.ar         1    LIG   0.0000
   8 C8           2.4101     0.0182    -0.0177 C.ar         1    LIG   0.0000
   9 C9           1.2094    -0.6830    -0.0156 C.ar         1    LIG   0.0000
  10 C10          1.2299    -2.1997    -0.0176 C.3          1    LIG   0.0000
  11 C11         -0.0042    -2.7241     0.6981 C.3          1    LIG   0.0000
  12 C12          2.4777    -2.6905     0.6984 C.2          1    LIG   0.0000
  13 O13          2.4059    -3.0786     1.8844 O.co2        1    LIG   0.0000
  14 O14          3.5406    -2.7054     0.1202 O.co2        1    LIG  -1.0000
  15 C15         -0.0287    -0.0489    -0.0148 C.ar         1    LIG   0.0000
  16 C16         -0.0657     1.3382    -0.0365 C.ar         1    LIG   0.0000
  17 C17         -1.2197     2.3265    -0.0597 C.3          1    LIG   0.0000
  18 H           -1.0859     4.4065     0.0409 H            1    LIG   0.0000
  19 H            1.2345    -2.5318    -0.9609 H            1    LIG   0.0000
  20 H           -0.0466     5.1069     3.3982 H            1    LIG   0.0000
  21 H            0.9181     5.0879     2.0807 H            1    LIG   0.0000
  22 H           -0.5503     5.7987     2.0074 H            1    LIG   0.0000
  23 H           -0.1236     2.9649     2.3607 H            1    LIG   0.0000
  24 H           -2.1024     3.7168     3.4513 H            1    LIG   0.0000
  25 H           -2.6060     4.4086     2.0605 H            1    LIG   0.0000
  26 H           -2.4901     2.7833     2.1688 H            1    LIG   0.0000
  27 H            0.8261     3.8434    -1.0395 H            1    LIG   0.0000
  28 H            1.4273     4.0302     0.4673 H            1    LIG   0.0000
  29 H            3.2227     1.9450    -0.0320 H            1    LIG   0.0000
  30 H            3.2829    -0.4698    -0.0082 H            1    LIG   0.0000
  31 H            0.0093    -3.7240     0.6968 H            1    LIG   0.0000
  32 H           -0.0088    -2.3921     1.6414 H            1    LIG   0.0000
  33 H           -0.8251    -2.4012     0.2271 H            1    LIG   0.0000
  34 H           -0.8747    -0.5817     0.0010 H            1    LIG   0.0000
  35 H           -1.9593     2.0208     0.5400 H            1    LIG   0.0000
  36 H           -1.5698     2.4399    -0.9895 H            1    LIG   0.0000
@<TRIPOS>BOND
   1        1        2 1
   2        2        3 1
   3        2        4 1
   4        4        5 1
   5        5        6 1
   6        6        7 ar
   7        7        8 ar
   8        8        9 ar
   9        9       10 1
  10       10       11 1
  11       10       12 1
  12       12       13 ar
  13       12       14 ar
  14        9       15 ar
  15       15       16 ar
  16       16        6 ar
  17       16       17 1
  18       17        4 1
  19        4       18 1
  20       10       19 1
  21        1       20 1
  22        1       21 1
  23        1       22 1
  24        2       23 1
  25        3       24 1
  26        3       25 1
  27        3       26 1
  28        5       27 1
  29        5       28 1
  30        7       29 1
  31        8       30 1
  32       11       31 1
  33       11       32 1
  34       11       33 1
  35       15       34 1
  36       17       35 1
  37       17       36 1

@<TRIPOS>MOLECULE

  36   37
SMALL
USER_CHARGES
@<TRIPOS>ATOM
   1 C1          -0.0283     5.0417     2.4005 C.3          1    LIG   0.0000
   2 C2          -0.6456     3.7219     1.9676 C.3          1    LIG   0.0000
   3 C3          -2.0841     3.6517     2.4536 C.3          1    LIG   0.0000
   4 C4          -0.6177     3.6226     0.4488 C.3          1    LIG   0.0000
   5 C5           0.7894     3.5075    -0.0983 C.3          1    LIG   0.0000
   6 C6           1.1286     2.0295    -0.0505 C.ar         1    LIG   0.0000
   7 C7           2.3787     1.4086    -0.0332 C.ar         1    LIG   0.0000
   8 C8           2.4101     0.0182    -0.0177 C.ar         1    LIG   0.0000
   9 C9           1.2094    -0.6830    -0.0156 C.ar         1    LIG   0.0000
  10 C10          1.2299    -2.1997    -0.0176 C.3          1    LIG   0.0000
  11 C11         -0.0042    -2.7241     0.6981 C.3          1    LIG   0.0000
  12 C12          2.4777    -2.6905     0.6984 C.2          1    LIG   0.0000
  13 O13          2.8953    -3.8521     0.5013 O.co2        1    LIG   0.0000
  14 O14          3.0668    -1.9567     1.4591 O.co2        1    LIG  -1.0000
  15 C15         -0.0287    -0.0489    -0.0148 C.ar         1    LIG   0.0000
  16 C16         -0.0657     1.3382    -0.0365 C.ar         1    LIG   0.0000
  17 C17         -1.2197     2.3265    -0.0597 C.3          1    LIG   0.0000
  18 H           -1.0859     4.4065     0.0409 H            1    LIG   0.0000
  19 H            1.2345    -2.5318    -0.9609 H            1    LIG   0.0000
  20 H           -0.0466     5.1069     3.3982 H            1    LIG   0.0000
  21 H            0.9181     5.0879     2.0807 H            1    LIG   0.0000
  22 H           -0.5503     5.7987     2.0074 H            1    LIG   0.0000
  23 H           -0.1236     2.9649     2.3607 H            1    LIG   0.0000
  24 H           -2.1024     3.7168     3.4513 H            1    LIG   0.0000
  25 H           -2.6060     4.4086     2.0605 H            1    LIG   0.0000
  26 H           -2.4901     2.7833     2.1688 H            1    LIG   0.0000
  27 H            0.8261     3.8434    -1.0395 H            1    LIG   0.0000
  28 H            1.4273     4.0302     0.4673 H            1    LIG   0.0000
  29 H            3.2227     1.9450    -0.0320 H            1    LIG   0.0000
  30 H            3.2829    -0.4698    -0.0082 H            1    LIG   0.0000
  31 H            0.0093    -3.7240     0.6968 H            1    LIG   0.0000
  32 H           -0.0088    -2.3921     1.6414 H            1    LIG   0.0000
  33 H           -0.8251    -2.4012     0.2271 H            1    LIG   0.0000
  34 H           -0.8747    -0.5817     0.0010 H            1    LIG   0.0000
  35 H           -1.9593     2.0208     0.5400 H            1    LIG   0.0000
  36 H           -1.5698     2.4399    -0.9895 H            1    LIG   0.0000
@<TRIPOS>BOND
   1        1        2 1
   2        2        3 1
   3        2        4 1
   4        4        5 1
   5        5        6 1
   6        6        7 ar
   7        7        8 ar
   8        8        9 ar
   9        9       10 1
  10       10       11 1
  11       10       12 1
  12       12       13 ar
  13       12       14 ar
  14        9       15 ar
  15       15       16 ar
  16       16        6 ar
  17       16       17 1
  18       17        4 1
  19        4       18 1
  20       10       19 1
  21        1       20 1
  22        1       21 1
  23        1       22 1
  24        2       23 1
  25        3       24 1
  26        3       25 1
  27        3       26 1
  28        5       27 1
  29        5       28 1
  30        7       29 1
  31        8       30 1
  32       11       31 1
  33       11       32 1
  34       11       33 1
  35       15       34 1
  36       17       35 1
  37       17       36 1

@<TRIPOS>MOLECULE

  36   37
SMALL
USER_CHARGES
@<TRIPOS>ATOM
   1 C1          -0.0283     5.0417     2.4005 C.3          1    LIG   0.0000
   2 C2          -0.6456     3.7219     1.9676 C.3          1    LIG   0.0000
   3 C3          -2.0841     3.6517     2.4536 C.3          1    LIG   0.0000
   4 C4          -0.6177     3.6226     0.4488 C.3          1    LIG   0.0000
   5 C5           0.7894     3.5075    -0.0983 C.3          1    LIG   0.0000
   6 C6           1.1286     2.0295    -0.0505 C.ar         1    LIG   0.0000
   7 C7           2.3787     1.4086    -0.0332 C.ar         1    LIG   0.0000
   8 C8           2.4101     0.0182    -0.0177 C.ar         1    LIG   0.0000
   9 C9           1.2094    -0.6830    -0.0156 C.ar         1    LIG   0.0000
  10 C10          1.2299    -2.1997    -0.0176 C.3          1    LIG   0.0000
  11 C11          1.9532    -2.6983     1.2229 C.3          1    LIG   0.0000
  12 C12          1.9534    -2.6950    -1.2593 C.2          1    LIG   0.0000
  13 O13          3.1450    -3.0645    -1.1827 O.co2        1    LIG   0.0000
  14 O14          1.3757    -2.7315    -2.3219 O.co2        1    LIG  -1.0000
  15 C15         -0.0287    -0.0489    -0.0148 C.ar         1    LIG   0.0000
  16 C16         -0.0657     1.3382    -0.0365 C.ar         1    LIG   0.0000
  17 C17         -1.2197     2.3265    -0.0597 C.3          1    LIG   0.0000
  18 H           -1.0859     4.4065     0.0409 H            1    LIG   0.0000
  19 H            0.2917    -2.5458    -0.0181 H            1    LIG   0.0000
  20 H           -0.0466     5.1069     3.3982 H            1    LIG   0.0000
  21 H            0.9181     5.0879     2.0807 H            1    LIG   0.0000
  22 H           -0.5503     5.7987     2.0074 H            1    LIG   0.0000
  23 H           -0.1236     2.9649     2.3607 H            1    LIG   0.0000
  24 H           -2.1024     3.7168     3.4513 H            1    LIG   0.0000
  25 H           -2.6060     4.4086     2.0605 H            1    LIG   0.0000
  26 H           -2.4901     2.7833     2.1688 H            1    LIG   0.0000
  27 H            0.8261     3.8434    -1.0395 H            1    LIG   0.0000
  28 H            1.4273     4.0302     0.4673 H            1    LIG   0.0000
  29 H            3.2227     1.9450    -0.0320 H            1    LIG   0.0000
  30 H            3.2829    -0.4698    -0.0082 H            1    LIG   0.0000
  31 H            1.9667    -3.6982     1.2215 H            1    LIG   0.0000
  32 H            2.8914    -2.3522     1.2234 H            1    LIG   0.0000
  33 H            1.4773    -2.3725     2.0398 H            1    LIG   0.0000
  34 H           -0.8747    -0.5817     0.0010 H            1    LIG   0.0000
  35 H           -1.9593     2.0208     0.5400 H            1    LIG   0.0000
  36 H           -1.5698     2.4399    -0.9895 H            1    LIG   0.0000
@<TRIPOS>BOND
   1        1        2 1
   2        2        3 1
   3        2        4 1
   4        4        5 1
   5        5        6 1
   6        6        7 ar
   7        7        8 ar
   8        8        9 ar
   9        9       10 1
  10       10       11 1
  11       10       12 1
  12       12       13 ar
  13       12       14 ar
  14        9       15 ar
  15       15       16 ar
  16       16        6 ar
  17       16       17 1
  18       17        4 1
  19        4       18 1
  20       10       19 1
  21        1       20 1
  22        1       21 1
  23        1       22 1
  24        2       23 1
  25        3       24 1
  26        3       25 1
  27        3       26 1
  28        5       27 1
  29        5       28 1
  30        7       29 1
  31        8       30 1
  32       11       31 1
  33       11       32 1
  34       11       33 1
  35       15       34 1
  36       17       35 1
  37       17       36 1

@<TRIPOS>MOLECULE

  36   37
SMALL
USER_CHARGES
@<TRIPOS>ATOM
   1 C1          -0.0283     5.0417     2.4005 C.3          1    LIG   0.0000
   2 C2          -0.6456     3.7219     1.9676 C.3          1    LIG   0.0000
   3 C3          -2.0841     3.6517     2.4536 C.3          1    LIG   0.0000
   4 C4          -0.6177     3.6226     0.4488 C.3          1    LIG   0.0000
   5 C5           0.7894     3.5075    -0.0983 C.3          1    LIG   0.0000
   6 C6           1.1286     2.0295    -0.0505 C.ar         1    LIG   0.0000
   7 C7           2.3787     1.4086    -0.0332 C.ar         1    LIG   0.0000
   8 C8           2.4101     0.0182    -0.0177 C.ar         1    LIG   0.0000
   9 C9           1.2094    -0.6830    -0.0156 C.ar         1    LIG   0.0000
  10 C10          1.2299    -2.1997    -0.0176 C.3          1    LIG   0.0000
  11 C11          1.9532    -2.6983     1.2229 C.3          1    LIG   0.0000
  12 C12          1.9534    -2.6950    -1.2593 C.2          1    LIG   0.0000
  13 O13          1.7737    -3.8644    -1.6626 O.co2        1    LIG   0.0000
  14 O14          2.7032    -1.9572    -1.8573 O.co2        1    LIG  -1.0000
  15 C15         -0.0287    -0.0489    -0.0148 C.ar         1    LIG   0.0000
  16 C16         -0.0657     1.3382    -0.0365 C.ar         1    LIG   0.0000
  17 C17         -1.2197     2.3265    -0.0597 C.3          1    LIG   0.0000
  18 H           -1.0859     4.4065     0.0409 H            1    LIG   0.0000
  19 H            0.2917    -2.5458    -0.0181 H            1    LIG   0.0000
  20 H           -0.0466     5.1069     3.3982 H            1    LIG   0.0000
  21 H            0.9181     5.0879     2.0807 H            1    LIG   0.0000
  22 H           -0.5503     5.7987     2.0074 H            1    LIG   0.0000
  23 H           -0.1236     2.9649     2.3607 H            1    LIG   0.0000
  24 H           -2.1024     3.7168     3.4513 H            1    LIG   0.0000
  25 H           -2.6060     4.4086     2.0605 H            1    LIG   0.0000
  26 H           -2.4901     2.7833     2.1688 H            1    LIG   0.0000
  27 H            0.8261     3.8434    -1.0395 H            1    LIG   0.0000
  28 H            1.4273     4.0302     0.4673 H            1    LIG   0.0000
  29 H            3.2227     1.9450    -0.0320 H            1    LIG   0.0000
  30 H            3.2829    -0.4698    -0.0082 H            1    LIG   0.0000
  31 H            1.9667    -3.6982     1.2215 H            1    LIG   0.0000
  32 H            2.8914    -2.3522     1.2234 H            1    LIG   0.0000
  33 H            1.4773    -2.3725     2.0398 H            1    LIG   0.0000
  34 H           -0.8747    -0.5817     0.0010 H            1    LIG   0.0000
  35 H           -1.9593     2.0208     0.5400 H            1    LIG   0.0000
  36 H           -1.5698     2.4399    -0.9895 H            1    LIG   0.0000
@<TRIPOS>BOND
   1        1        2 1
   2        2        3 1
   3        2        4 1
   4        4        5 1
   5        5        6 1
   6        6        7 ar
   7        7        8 ar
   8        8        9 ar
   9        9       10 1
  10       10       11 1
  11       10       12 1
  12       12       13 ar
  13       12       14 ar
  14        9       15 ar
  15       15       16 ar
  16       16        6 ar
  17       16       17 1
  18       17        4 1
  19        4       18 1
  20       10       19 1
  21        1       20 1
  22        1       21 1
  23        1       22 1
  24        2       23 1
  25        3       24 1
  26        3       25 1
  27        3       26 1
  28        5       27 1
  29        5       28 1
  30        7       29 1
  31        8       30 1
  32       11       31 1
  33       11       32 1
  34       11       33 1
  35       15       34 1
  36       17       35 1
  37       17       36 1

