@<TRIPOS>MOLECULE
*****
 36 37 0 0 0
SMALL
USER_CHARGES

@<TRIPOS>ATOM
      1 C1         -0.0283    5.0417    2.4005 C.3     1  LIG1        0.0000
      2 C2         -0.6456    3.7219    1.9676 C.3     1  LIG1        0.0000
      3 C3         -2.0841    3.6517    2.4536 C.3     1  LIG1        0.0000
      4 C4         -0.6177    3.6226    0.4488 C.3     1  LIG1        0.0000
      5 C5          0.7894    3.5075   -0.0983 C.3     1  LIG1        0.0000
      6 C6          1.1286    2.0295   -0.0505 C.3     1  LIG1        0.0000
      7 C7          2.3787    1.4086   -0.0332 C.3     1  LIG1        0.0000
      8 C8          2.4101    0.0182   -0.0177 C.3     1  LIG1        0.0000
      9 C9          1.2094   -0.6830   -0.0156 C.3     1  LIG1        0.0000
     10 C10         1.2299   -2.1997   -0.0176 C.3     1  LIG1        0.0000
     11 C11         2.4778   -2.6886   -0.7347 C.3     1  LIG1        0.0000
     12 C12        -0.0041   -2.7222   -0.7349 C.3     1  LIG1        0.0000
     13 O13        -0.3900   -3.8952   -0.5410 O.2     1  LIG1        0.0000
     14 O14        -0.6129   -2.0026   -1.4937 O.2     1  LIG1       -1.0000
     15 C15        -0.0287   -0.0489   -0.0148 C.3     1  LIG1        0.0000
     16 C16        -0.0657    1.3382   -0.0365 C.3     1  LIG1        0.0000
     17 C17        -1.2197    2.3265   -0.0597 C.3     1  LIG1        0.0000
     18 H          -1.0859    4.4065    0.0409 H       1  LIG1        0.0000
     19 H           1.2344   -2.5343    0.9248 H       1  LIG1        0.0000
     20 H          -0.0466    5.1069    3.3982 H       1  LIG1        0.0000
     21 H           0.9181    5.0879    2.0807 H       1  LIG1        0.0000
     22 H          -0.5503    5.7987    2.0074 H       1  LIG1        0.0000
     23 H          -0.1236    2.9649    2.3607 H       1  LIG1        0.0000
     24 H          -2.1024    3.7168    3.4513 H       1  LIG1        0.0000
     25 H          -2.6060    4.4086    2.0605 H       1  LIG1        0.0000
     26 H          -2.4901    2.7833    2.1688 H       1  LIG1        0.0000
     27 H           0.8261    3.8434   -1.0395 H       1  LIG1        0.0000
     28 H           1.4273    4.0302    0.4673 H       1  LIG1        0.0000
     29 H           3.2227    1.9450   -0.0320 H       1  LIG1        0.0000
     30 H           3.2829   -0.4698   -0.0082 H       1  LIG1        0.0000
     31 H           2.4914   -3.6885   -0.7360 H       1  LIG1        0.0000
     32 H           2.4734   -2.3540   -1.6771 H       1  LIG1        0.0000
     33 H           3.2897   -2.3448   -0.2628 H       1  LIG1        0.0000
     34 H          -0.8747   -0.5817    0.0010 H       1  LIG1        0.0000
     35 H          -1.9593    2.0208    0.5400 H       1  LIG1        0.0000
     36 H          -1.5698    2.4399   -0.9895 H       1  LIG1        0.0000
@<TRIPOS>UNITY_ATOM_ATTR
13 1
charge -1
@<TRIPOS>BOND
     1     1     2    1
     2     2     3    1
     3     2     4    1
     4     4     5    1
     5     5     6    1
     6     6     7   ar
     7     7     8   ar
     8     8     9   ar
     9     9    10    1
    10    10    11    1
    11    10    12    1
    12    12    13    1
    13    12    14    2
    14     9    15   ar
    15    15    16   ar
    16    16     6   ar
    17    16    17    1
    18    17     4    1
    19     4    18    1
    20    10    19    1
    21     1    20    1
    22     1    21    1
    23     1    22    1
    24     2    23    1
    25     3    24    1
    26     3    25    1
    27     3    26    1
    28     5    27    1
    29     5    28    1
    30     7    29    1
    31     8    30    1
    32    11    31    1
    33    11    32    1
    34    11    33    1
    35    15    34    1
    36    17    35    1
    37    17    36    1
