@<TRIPOS>MOLECULE
*****
 36 37 0 0 0
SMALL
USER_CHARGES

@<TRIPOS>ATOM
      1 C1         -0.7039    6.1358   -0.1703 C.3     1  LIG1        0.0000
      2 C2         -1.2924    4.8305    0.3398 C.3     1  LIG1        0.0000
      3 C3         -2.7817    4.7940    0.0380 C.3     1  LIG1        0.0000
      4 C4         -0.6067    3.6615   -0.3499 C.3     1  LIG1        0.0000
      5 C5          0.8376    3.5505    0.1088 C.3     1  LIG1        0.0000
      6 C6          1.1573    2.0656    0.0415 C.3     1  LIG1        0.0000
      7 C7          2.3851    1.4121    0.0028 C.3     1  LIG1        0.0000
      8 C8          2.4128    0.0220   -0.0207 C.3     1  LIG1        0.0000
      9 C9          1.2139   -0.6813   -0.0062 C.3     1  LIG1        0.0000
     10 C10         1.2290   -2.1987   -0.0175 C.3     1  LIG1        0.0000
     11 C11         0.4872   -2.7037   -1.2444 C.3     1  LIG1        0.0000
     12 C12         0.5483   -2.7216    1.2369 C.3     1  LIG1        0.0000
     13 O13        -0.6359   -3.1187    1.1862 O.2     1  LIG1        0.0000
     14 O14         1.1527   -2.7536    2.2847 O.2     1  LIG1       -1.0000
     15 C15        -0.0125   -0.0298    0.0287 C.3     1  LIG1        0.0000
     16 C16        -0.0288    1.3588    0.0568 C.3     1  LIG1        0.0000
     17 C17        -1.1774    2.3478    0.1431 C.3     1  LIG1        0.0000
     18 H          -0.6693    3.7366   -1.3451 H       1  LIG1        0.0000
     19 H           2.1748   -2.5225   -0.0431 H       1  LIG1        0.0000
     20 H          -1.1548    6.9045    0.2832 H       1  LIG1        0.0000
     21 H           0.2759    6.1597    0.0282 H       1  LIG1        0.0000
     22 H          -0.8456    6.2018   -1.1580 H       1  LIG1        0.0000
     23 H          -1.1507    4.7644    1.3275 H       1  LIG1        0.0000
     24 H          -3.2326    5.5628    0.4916 H       1  LIG1        0.0000
     25 H          -2.9234    4.8600   -0.9497 H       1  LIG1        0.0000
     26 H          -3.1689    3.9353    0.3737 H       1  LIG1        0.0000
     27 H           1.4402    4.0678   -0.4988 H       1  LIG1        0.0000
     28 H           0.9365    3.8895    1.0443 H       1  LIG1        0.0000
     29 H           3.2370    1.9356   -0.0080 H       1  LIG1        0.0000
     30 H           3.2852   -0.4661   -0.0478 H       1  LIG1        0.0000
     31 H           0.4972   -3.7036   -1.2519 H       1  LIG1        0.0000
     32 H          -0.4586   -2.3799   -1.2188 H       1  LIG1        0.0000
     33 H           0.9351   -2.3597   -2.0697 H       1  LIG1        0.0000
     34 H          -0.8665   -0.5501    0.0336 H       1  LIG1        0.0000
     35 H          -1.4947    2.4355    1.0874 H       1  LIG1        0.0000
     36 H          -1.9368    2.0551   -0.4379 H       1  LIG1        0.0000
@<TRIPOS>UNITY_ATOM_ATTR
13 1
charge -1
@<TRIPOS>BOND
     1     1     2    1
     2     2     3    1
     3     2     4    1
     4     4     5    1
     5     5     6    1
     6     6     7   ar
     7     7     8   ar
     8     8     9   ar
     9     9    10    1
    10    10    11    1
    11    10    12    1
    12    12    13    1
    13    12    14    2
    14     9    15   ar
    15    15    16   ar
    16    16     6   ar
    17    16    17    1
    18    17     4    1
    19     4    18    1
    20    10    19    1
    21     1    20    1
    22     1    21    1
    23     1    22    1
    24     2    23    1
    25     3    24    1
    26     3    25    1
    27     3    26    1
    28     5    27    1
    29     5    28    1
    30     7    29    1
    31     8    30    1
    32    11    31    1
    33    11    32    1
    34    11    33    1
    35    15    34    1
    36    17    35    1
    37    17    36    1
