@<TRIPOS>MOLECULE
*****
 26 27 0 0 0
SMALL
USER_CHARGES

@<TRIPOS>ATOM
      1 O1          3.4748   -0.5851    2.3493 O.2     1  LIG1        0.0000
      2 C2          4.1769   -0.9719    1.3902 C.3     1  LIG1        0.0000
      3 O3          5.2182   -1.5521    1.5979 O.2     1  LIG1       -1.0000
      4 C4          3.7226   -0.7135   -0.0371 C.3     1  LIG1        0.0000
      5 C5          2.3947    0.0252   -0.0201 C.3     1  LIG1        0.0000
      6 C6          2.3816    1.4162   -0.0083 C.3     1  LIG1        0.0000
      7 C7          1.1707    2.1003    0.0071 C.3     1  LIG1        0.0000
      8 C8         -0.0173    1.3767    0.0106 C.3     1  LIG1        0.0000
      9 S9         -1.5352    2.2275    0.0286 S.O     1  LIG1        0.0000
     10 O10        -1.3789    3.5368   -0.6651 O.2     1  LIG1        0.0000
     11 C11        -2.0480    2.5092    1.7394 C.3     1  LIG1        0.0000
     12 C12        -3.3357    3.2300    2.0429 C.3     1  LIG1        0.0000
     13 C13        -3.2246    1.7506    2.2861 C.3     1  LIG1        0.0000
     14 C14        -0.0139   -0.0147   -0.0012 C.3     1  LIG1        0.0000
     15 C15         1.2021   -0.6899   -0.0165 C.3     1  LIG1        0.0000
     16 H           4.4070   -0.1580   -0.5094 H       1  LIG1        0.0000
     17 H           3.6131   -1.5850   -0.5151 H       1  LIG1        0.0000
     18 H           3.2429    1.9243   -0.0108 H       1  LIG1        0.0000
     19 H           1.1544    3.1001    0.0154 H       1  LIG1        0.0000
     20 H          -1.3041    2.6706    2.3880 H       1  LIG1        0.0000
     21 H          -3.9052    3.5728    1.2958 H       1  LIG1        0.0000
     22 H          -3.3850    3.8618    2.8165 H       1  LIG1        0.0000
     23 H          -3.2011    1.3985    3.2217 H       1  LIG1        0.0000
     24 H          -3.7212    1.1095    1.7010 H       1  LIG1        0.0000
     25 H          -0.8751   -0.5230    0.0012 H       1  LIG1        0.0000
     26 H           1.2186   -1.6897   -0.0248 H       1  LIG1        0.0000
@<TRIPOS>UNITY_ATOM_ATTR
1 1
charge -1
@<TRIPOS>BOND
     1     1     2    1
     2     2     3    2
     3     2     4    1
     4     4     5    1
     5     5     6   ar
     6     6     7   ar
     7     7     8   ar
     8     8     9    1
     9     9    10    2
    10     9    11    1
    11    11    12    1
    12    12    13    1
    13    13    11    1
    14     8    14   ar
    15    14    15   ar
    16    15     5   ar
    17     4    16    1
    18     4    17    1
    19     6    18    1
    20     7    19    1
    21    11    20    1
    22    12    21    1
    23    12    22    1
    24    13    23    1
    25    13    24    1
    26    14    25    1
    27    15    26    1
