@<TRIPOS>MOLECULE

  75   78
SMALL
USER_CHARGES
@<TRIPOS>ATOM
   1 C1           2.1370     8.7446     1.0659 C.3          1    LIG   0.0000
   2 C2           2.4480     7.2756     0.8304 C.3          1    LIG   0.0000
   3 C3           3.4028     6.7813     1.9049 C.3          1    LIG   0.0000
   4 C4           1.1605     6.4697     0.8870 C.3          1    LIG   0.0000
   5 C5           1.4715     5.0007     0.6516 C.2          1    LIG   0.0000
   6 N6           2.6534     4.4778     0.4313 N.2          1    LIG   0.0000
   7 N7           2.5406     3.1717     0.2688 N.2          1    LIG   0.0000
   8 C8           1.2810     2.8321     0.3905 C.2          1    LIG   0.0000
   9 N9           0.7589     1.5402     0.2946 N.pl3        1    LIG   0.0000
  10 C10          1.6818     0.4219     0.0282 C.3          1    LIG   0.0000
  11 C11          1.1084    -0.9377     0.4032 C.3          1    LIG   0.0000
  12 C12         -0.2507    -1.0176    -0.2638 C.ar         1    LIG   0.0000
  13 C13         -0.6093    -2.2077    -0.8900 C.ar         1    LIG   0.0000
  14 C14         -1.8339    -2.2665    -1.5449 C.ar         1    LIG   0.0000
  15 O15         -2.1785    -3.4029    -2.1878 O.3          1    LIG   0.0000
  16 C16         -3.4442    -3.3816    -2.8310 C.3          1    LIG   0.0000
  17 C17         -3.6917    -4.7204    -3.5068 C.3          1    LIG   0.0000
  18 C18         -5.0466    -4.6977    -4.1954 C.3          1    LIG   0.0000
  19 C19         -2.6040    -4.9766    -4.5372 C.3          1    LIG   0.0000
  20 C20         -3.6719    -5.8259    -2.4637 C.3          1    LIG   0.0000
  21 C21         -2.6893    -1.1700    -1.5479 C.ar         1    LIG   0.0000
  22 C22         -2.3352     0.0087    -0.8997 C.ar         1    LIG   0.0000
  23 C23         -1.1053     0.0781    -0.2528 C.ar         1    LIG   0.0000
  24 C24         -0.6920     1.3551     0.4609 C.3          1    LIG   0.0000
  25 N25          0.5798     3.9735     0.6322 N.pl3        1    LIG   0.0000
  26 C26         -0.8719     4.0800     0.8316 C.3          1    LIG   0.0000
  27 C27         -1.5522     4.3047    -0.5089 C.ar         1    LIG   0.0000
  28 N28         -0.8353     4.3777    -1.6415 N.ar         1    LIG   0.0000
  29 C29         -1.4145     4.5763    -2.8353 C.ar         1    LIG   0.0000
  30 C30         -2.7941     4.7116    -2.9369 C.ar         1    LIG   0.0000
  31 C31         -3.5574     4.6400    -1.7769 C.ar         1    LIG   0.0000
  32 C32         -2.9374     4.4344    -0.5495 C.ar         1    LIG   0.0000
  33 N33         -3.7188     4.3640     0.6102 N.pl3        1    LIG   0.0000
  34 C34         -3.7021     3.1474     1.4350 C.3          1    LIG   0.0000
  35 C35         -4.5559     5.5068     1.0029 C.3          1    LIG   0.0000
  36 H            2.9840     9.2748     1.0287 H            1    LIG   0.0000
  37 H            1.5088     9.0698     0.3590 H            1    LIG   0.0000
  38 H            1.7135     8.8558     1.9650 H            1    LIG   0.0000
  39 H            2.8716     7.1645    -0.0686 H            1    LIG   0.0000
  40 H            4.2499     7.3115     1.8677 H            1    LIG   0.0000
  41 H            2.9793     6.8924     2.8039 H            1    LIG   0.0000
  42 H            3.6075     5.8148     1.7500 H            1    LIG   0.0000
  43 H            0.7370     6.5808     1.7861 H            1    LIG   0.0000
  44 H            0.5324     6.7949     0.1802 H            1    LIG   0.0000
  45 H            2.5188     0.5692     0.5552 H            1    LIG   0.0000
  46 H            1.8992     0.4160    -0.9479 H            1    LIG   0.0000
  47 H            1.7026    -1.6694     0.0692 H            1    LIG   0.0000
  48 H            1.0130    -1.0126     1.3958 H            1    LIG   0.0000
  49 H           -0.0008    -3.0010    -0.8693 H            1    LIG   0.0000
  50 H           -3.4572    -2.6544    -3.5172 H            1    LIG   0.0000
  51 H           -4.1598    -3.2131    -2.1531 H            1    LIG   0.0000
  52 H           -5.2094    -5.5785    -4.6400 H            1    LIG   0.0000
  53 H           -5.7622    -4.5292    -3.5175 H            1    LIG   0.0000
  54 H           -5.0596    -3.9704    -4.8816 H            1    LIG   0.0000
  55 H           -2.7668    -5.8574    -4.9818 H            1    LIG   0.0000
  56 H           -2.6170    -4.2493    -5.2234 H            1    LIG   0.0000
  57 H           -1.7126    -4.9916    -4.0842 H            1    LIG   0.0000
  58 H           -3.8347    -6.7067    -2.9084 H            1    LIG   0.0000
  59 H           -2.7805    -5.8408    -2.0108 H            1    LIG   0.0000
  60 H           -4.3875    -5.6574    -1.7859 H            1    LIG   0.0000
  61 H           -3.5683    -1.2296    -2.0211 H            1    LIG   0.0000
  62 H           -2.9547     0.7937    -0.8987 H            1    LIG   0.0000
  63 H           -1.1782     2.1342     0.0652 H            1    LIG   0.0000
  64 H           -0.9128     1.2836     1.4336 H            1    LIG   0.0000
  65 H           -1.0694     4.8496     1.4388 H            1    LIG   0.0000
  66 H           -1.2148     3.2350     1.2420 H            1    LIG   0.0000
  67 H           -0.8492     4.6274    -3.6586 H            1    LIG   0.0000
  68 H           -3.2286     4.8573    -3.8257 H            1    LIG   0.0000
  69 H           -4.5515     4.7364    -1.8254 H            1    LIG   0.0000
  70 H           -4.3120     3.2673     2.2183 H            1    LIG   0.0000
  71 H           -4.0111     2.3695     0.8879 H            1    LIG   0.0000
  72 H           -2.7717     2.9777     1.7600 H            1    LIG   0.0000
  73 H           -5.0433     5.2881     1.8482 H            1    LIG   0.0000
  74 H           -3.9772     6.3090     1.1498 H            1    LIG   0.0000
  75 H           -5.2166     5.7007     0.2777 H            1    LIG   0.0000
@<TRIPOS>BOND
   1        1        2 1
   2        2        3 1
   3        2        4 1
   4        4        5 1
   5        5        6 2
   6        6        7 1
   7        7        8 2
   8        8        9 1
   9        9       10 1
  10       10       11 1
  11       11       12 1
  12       12       13 ar
  13       13       14 ar
  14       14       15 1
  15       15       16 1
  16       16       17 1
  17       17       18 1
  18       17       19 1
  19       17       20 1
  20       14       21 ar
  21       21       22 ar
  22       22       23 ar
  23       23       12 ar
  24       23       24 1
  25       24        9 1
  26        8       25 1
  27       25        5 1
  28       25       26 1
  29       26       27 1
  30       27       28 ar
  31       28       29 ar
  32       29       30 ar
  33       30       31 ar
  34       31       32 ar
  35       32       27 ar
  36       32       33 1
  37       33       34 1
  38       33       35 1
  39        1       36 1
  40        1       37 1
  41        1       38 1
  42        2       39 1
  43        3       40 1
  44        3       41 1
  45        3       42 1
  46        4       43 1
  47        4       44 1
  48       10       45 1
  49       10       46 1
  50       11       47 1
  51       11       48 1
  52       13       49 1
  53       16       50 1
  54       16       51 1
  55       18       52 1
  56       18       53 1
  57       18       54 1
  58       19       55 1
  59       19       56 1
  60       19       57 1
  61       20       58 1
  62       20       59 1
  63       20       60 1
  64       21       61 1
  65       22       62 1
  66       24       63 1
  67       24       64 1
  68       26       65 1
  69       26       66 1
  70       29       67 1
  71       30       68 1
  72       31       69 1
  73       34       70 1
  74       34       71 1
  75       34       72 1
  76       35       73 1
  77       35       74 1
  78       35       75 1

@<TRIPOS>MOLECULE

  75   78
SMALL
USER_CHARGES
@<TRIPOS>ATOM
   1 C1           2.1370     8.7446     1.0659 C.3          1    LIG   0.0000
   2 C2           2.4480     7.2756     0.8304 C.3          1    LIG   0.0000
   3 C3           3.4028     6.7813     1.9049 C.3          1    LIG   0.0000
   4 C4           1.1605     6.4697     0.8870 C.3          1    LIG   0.0000
   5 C5           1.4715     5.0007     0.6516 C.2          1    LIG   0.0000
   6 N6           2.6534     4.4778     0.4313 N.2          1    LIG   0.0000
   7 N7           2.5406     3.1717     0.2688 N.2          1    LIG   0.0000
   8 C8           1.2810     2.8321     0.3905 C.2          1    LIG   0.0000
   9 N9           0.7589     1.5402     0.2946 N.pl3        1    LIG   0.0000
  10 C10          1.6818     0.4219     0.0282 C.3          1    LIG   0.0000
  11 C11          1.1084    -0.9377     0.4032 C.3          1    LIG   0.0000
  12 C12         -0.2507    -1.0176    -0.2638 C.ar         1    LIG   0.0000
  13 C13         -0.6093    -2.2077    -0.8900 C.ar         1    LIG   0.0000
  14 C14         -1.8339    -2.2665    -1.5449 C.ar         1    LIG   0.0000
  15 O15         -2.1785    -3.4029    -2.1878 O.3          1    LIG   0.0000
  16 C16         -1.2246    -4.4531    -2.1266 C.3          1    LIG   0.0000
  17 C17         -1.7486    -5.6584    -2.8902 C.3          1    LIG   0.0000
  18 C18         -0.7276    -6.7826    -2.8248 C.3          1    LIG   0.0000
  19 C19         -3.0550    -6.1237    -2.2680 C.3          1    LIG   0.0000
  20 C20         -1.9870    -5.2744    -4.3414 C.3          1    LIG   0.0000
  21 C21         -2.6893    -1.1700    -1.5479 C.ar         1    LIG   0.0000
  22 C22         -2.3352     0.0087    -0.8997 C.ar         1    LIG   0.0000
  23 C23         -1.1053     0.0781    -0.2528 C.ar         1    LIG   0.0000
  24 C24         -0.6920     1.3551     0.4609 C.3          1    LIG   0.0000
  25 N25          0.5798     3.9735     0.6322 N.pl3        1    LIG   0.0000
  26 C26         -0.8719     4.0800     0.8316 C.3          1    LIG   0.0000
  27 C27         -1.5522     4.3047    -0.5089 C.ar         1    LIG   0.0000
  28 N28         -0.8353     4.3777    -1.6415 N.ar         1    LIG   0.0000
  29 C29         -1.4145     4.5763    -2.8353 C.ar         1    LIG   0.0000
  30 C30         -2.7941     4.7116    -2.9369 C.ar         1    LIG   0.0000
  31 C31         -3.5574     4.6400    -1.7769 C.ar         1    LIG   0.0000
  32 C32         -2.9374     4.4344    -0.5495 C.ar         1    LIG   0.0000
  33 N33         -3.7188     4.3640     0.6102 N.pl3        1    LIG   0.0000
  34 C34         -3.7021     3.1474     1.4350 C.3          1    LIG   0.0000
  35 C35         -4.5559     5.5068     1.0029 C.3          1    LIG   0.0000
  36 H            2.9840     9.2748     1.0287 H            1    LIG   0.0000
  37 H            1.5088     9.0698     0.3590 H            1    LIG   0.0000
  38 H            1.7135     8.8558     1.9650 H            1    LIG   0.0000
  39 H            2.8716     7.1645    -0.0686 H            1    LIG   0.0000
  40 H            4.2499     7.3115     1.8677 H            1    LIG   0.0000
  41 H            2.9793     6.8924     2.8039 H            1    LIG   0.0000
  42 H            3.6075     5.8148     1.7500 H            1    LIG   0.0000
  43 H            0.7370     6.5808     1.7861 H            1    LIG   0.0000
  44 H            0.5324     6.7949     0.1802 H            1    LIG   0.0000
  45 H            2.5188     0.5692     0.5552 H            1    LIG   0.0000
  46 H            1.8992     0.4160    -0.9479 H            1    LIG   0.0000
  47 H            1.7026    -1.6694     0.0692 H            1    LIG   0.0000
  48 H            1.0130    -1.0126     1.3958 H            1    LIG   0.0000
  49 H           -0.0008    -3.0010    -0.8693 H            1    LIG   0.0000
  50 H           -1.0678    -4.7057    -1.1719 H            1    LIG   0.0000
  51 H           -0.3651    -4.1470    -2.5360 H            1    LIG   0.0000
  52 H           -1.0723    -7.5756    -3.3271 H            1    LIG   0.0000
  53 H            0.1319    -6.4765    -3.2342 H            1    LIG   0.0000
  54 H           -0.5707    -7.0353    -1.8700 H            1    LIG   0.0000
  55 H           -3.3997    -6.9167    -2.7703 H            1    LIG   0.0000
  56 H           -2.8981    -6.3763    -1.3132 H            1    LIG   0.0000
  57 H           -3.7267    -5.3841    -2.3110 H            1    LIG   0.0000
  58 H           -2.3317    -6.0674    -4.8438 H            1    LIG   0.0000
  59 H           -2.6587    -4.5348    -4.3845 H            1    LIG   0.0000
  60 H           -1.1275    -4.9683    -4.7508 H            1    LIG   0.0000
  61 H           -3.5683    -1.2296    -2.0211 H            1    LIG   0.0000
  62 H           -2.9547     0.7937    -0.8987 H            1    LIG   0.0000
  63 H           -1.1782     2.1342     0.0652 H            1    LIG   0.0000
  64 H           -0.9128     1.2836     1.4336 H            1    LIG   0.0000
  65 H           -1.0694     4.8496     1.4388 H            1    LIG   0.0000
  66 H           -1.2148     3.2350     1.2420 H            1    LIG   0.0000
  67 H           -0.8492     4.6274    -3.6586 H            1    LIG   0.0000
  68 H           -3.2286     4.8573    -3.8257 H            1    LIG   0.0000
  69 H           -4.5515     4.7364    -1.8254 H            1    LIG   0.0000
  70 H           -4.3120     3.2673     2.2183 H            1    LIG   0.0000
  71 H           -4.0111     2.3695     0.8879 H            1    LIG   0.0000
  72 H           -2.7717     2.9777     1.7600 H            1    LIG   0.0000
  73 H           -5.0433     5.2881     1.8482 H            1    LIG   0.0000
  74 H           -3.9772     6.3090     1.1498 H            1    LIG   0.0000
  75 H           -5.2166     5.7007     0.2777 H            1    LIG   0.0000
@<TRIPOS>BOND
   1        1        2 1
   2        2        3 1
   3        2        4 1
   4        4        5 1
   5        5        6 2
   6        6        7 1
   7        7        8 2
   8        8        9 1
   9        9       10 1
  10       10       11 1
  11       11       12 1
  12       12       13 ar
  13       13       14 ar
  14       14       15 1
  15       15       16 1
  16       16       17 1
  17       17       18 1
  18       17       19 1
  19       17       20 1
  20       14       21 ar
  21       21       22 ar
  22       22       23 ar
  23       23       12 ar
  24       23       24 1
  25       24        9 1
  26        8       25 1
  27       25        5 1
  28       25       26 1
  29       26       27 1
  30       27       28 ar
  31       28       29 ar
  32       29       30 ar
  33       30       31 ar
  34       31       32 ar
  35       32       27 ar
  36       32       33 1
  37       33       34 1
  38       33       35 1
  39        1       36 1
  40        1       37 1
  41        1       38 1
  42        2       39 1
  43        3       40 1
  44        3       41 1
  45        3       42 1
  46        4       43 1
  47        4       44 1
  48       10       45 1
  49       10       46 1
  50       11       47 1
  51       11       48 1
  52       13       49 1
  53       16       50 1
  54       16       51 1
  55       18       52 1
  56       18       53 1
  57       18       54 1
  58       19       55 1
  59       19       56 1
  60       19       57 1
  61       20       58 1
  62       20       59 1
  63       20       60 1
  64       21       61 1
  65       22       62 1
  66       24       63 1
  67       24       64 1
  68       26       65 1
  69       26       66 1
  70       29       67 1
  71       30       68 1
  72       31       69 1
  73       34       70 1
  74       34       71 1
  75       34       72 1
  76       35       73 1
  77       35       74 1
  78       35       75 1

@<TRIPOS>MOLECULE

  75   78
SMALL
USER_CHARGES
@<TRIPOS>ATOM
   1 C1           1.9917     8.7898     0.5921 C.3          1    LIG   0.0000
   2 C2           2.3027     7.3208     0.3566 C.3          1    LIG   0.0000
   3 C3           3.5875     6.9525     1.0805 C.3          1    LIG   0.0000
   4 C4           1.1605     6.4697     0.8870 C.3          1    LIG   0.0000
   5 C5           1.4715     5.0007     0.6516 C.2          1    LIG   0.0000
   6 N6           2.6534     4.4778     0.4313 N.2          1    LIG   0.0000
   7 N7           2.5406     3.1717     0.2688 N.2          1    LIG   0.0000
   8 C8           1.2810     2.8321     0.3905 C.2          1    LIG   0.0000
   9 N9           0.7589     1.5402     0.2946 N.pl3        1    LIG   0.0000
  10 C10          1.6818     0.4219     0.0282 C.3          1    LIG   0.0000
  11 C11          1.1084    -0.9377     0.4032 C.3          1    LIG   0.0000
  12 C12         -0.2507    -1.0176    -0.2638 C.ar         1    LIG   0.0000
  13 C13         -0.6093    -2.2077    -0.8900 C.ar         1    LIG   0.0000
  14 C14         -1.8339    -2.2665    -1.5449 C.ar         1    LIG   0.0000
  15 O15         -2.1785    -3.4029    -2.1878 O.3          1    LIG   0.0000
  16 C16         -3.1887    -3.2640    -3.1759 C.3          1    LIG   0.0000
  17 C17         -2.5781    -3.4538    -4.5549 C.3          1    LIG   0.0000
  18 C18         -3.4907    -2.8370    -5.6024 C.3          1    LIG   0.0000
  19 C19         -1.2186    -2.7758    -4.6048 C.3          1    LIG   0.0000
  20 C20         -2.4145    -4.9385    -4.8365 C.3          1    LIG   0.0000
  21 C21         -2.6893    -1.1700    -1.5479 C.ar         1    LIG   0.0000
  22 C22         -2.3352     0.0087    -0.8997 C.ar         1    LIG   0.0000
  23 C23         -1.1053     0.0781    -0.2528 C.ar         1    LIG   0.0000
  24 C24         -0.6920     1.3551     0.4609 C.3          1    LIG   0.0000
  25 N25          0.5798     3.9735     0.6322 N.pl3        1    LIG   0.0000
  26 C26         -0.8719     4.0800     0.8316 C.3          1    LIG   0.0000
  27 C27         -1.5522     4.3047    -0.5089 C.ar         1    LIG   0.0000
  28 N28         -1.1413     3.6521    -1.6078 N.ar         1    LIG   0.0000
  29 C29         -1.7264     3.8355    -2.8012 C.ar         1    LIG   0.0000
  30 C30         -2.7924     4.7171    -2.9369 C.ar         1    LIG   0.0000
  31 C31         -3.2350     5.4048    -1.8124 C.ar         1    LIG   0.0000
  32 C32         -2.6143     5.2009    -0.5849 C.ar         1    LIG   0.0000
  33 N33         -3.0711     5.9000     0.5389 N.pl3        1    LIG   0.0000
  34 C34         -4.1257     5.3231     1.3849 C.3          1    LIG   0.0000
  35 C35         -2.4959     7.2110     0.8728 C.3          1    LIG   0.0000
  36 H            2.7431     9.3498     0.2431 H            1    LIG   0.0000
  37 H            1.1464     9.0321     0.1158 H            1    LIG   0.0000
  38 H            1.8809     8.9542     1.5722 H            1    LIG   0.0000
  39 H            2.4135     7.1564    -0.6236 H            1    LIG   0.0000
  40 H            4.3390     7.5125     0.7315 H            1    LIG   0.0000
  41 H            3.4767     7.1168     2.0606 H            1    LIG   0.0000
  42 H            3.7922     5.9860     0.9256 H            1    LIG   0.0000
  43 H            1.0497     6.6340     1.8672 H            1    LIG   0.0000
  44 H            0.3152     6.7119     0.4108 H            1    LIG   0.0000
  45 H            2.5188     0.5692     0.5552 H            1    LIG   0.0000
  46 H            1.8992     0.4160    -0.9479 H            1    LIG   0.0000
  47 H            1.7026    -1.6694     0.0692 H            1    LIG   0.0000
  48 H            1.0130    -1.0126     1.3958 H            1    LIG   0.0000
  49 H           -0.0008    -3.0010    -0.8693 H            1    LIG   0.0000
  50 H           -3.5931    -2.3515    -3.1132 H            1    LIG   0.0000
  51 H           -3.8974    -3.9536    -3.0274 H            1    LIG   0.0000
  52 H           -3.0890    -2.9619    -6.5096 H            1    LIG   0.0000
  53 H           -4.3851    -3.2831    -5.5696 H            1    LIG   0.0000
  54 H           -3.5984    -1.8602    -5.4171 H            1    LIG   0.0000
  55 H           -0.8170    -2.9006    -5.5120 H            1    LIG   0.0000
  56 H           -1.3263    -1.7990    -4.4195 H            1    LIG   0.0000
  57 H           -0.6183    -3.1815    -3.9157 H            1    LIG   0.0000
  58 H           -2.0128    -5.0634    -5.7438 H            1    LIG   0.0000
  59 H           -1.8141    -5.3443    -4.1474 H            1    LIG   0.0000
  60 H           -3.3088    -5.3846    -4.8037 H            1    LIG   0.0000
  61 H           -3.5683    -1.2296    -2.0211 H            1    LIG   0.0000
  62 H           -2.9547     0.7937    -0.8987 H            1    LIG   0.0000
  63 H           -1.1782     2.1342     0.0652 H            1    LIG   0.0000
  64 H           -0.9128     1.2836     1.4336 H            1    LIG   0.0000
  65 H           -1.0694     4.8496     1.4388 H            1    LIG   0.0000
  66 H           -1.2148     3.2350     1.2420 H            1    LIG   0.0000
  67 H           -1.3930     3.3339    -3.5994 H            1    LIG   0.0000
  68 H           -3.2318     4.8539    -3.8247 H            1    LIG   0.0000
  69 H           -3.9991     6.0456    -1.8864 H            1    LIG   0.0000
  70 H           -4.3295     5.9495     2.1373 H            1    LIG   0.0000
  71 H           -4.9505     5.1796     0.8380 H            1    LIG   0.0000
  72 H           -3.8146     4.4477     1.7549 H            1    LIG   0.0000
  73 H           -2.9336     7.5664     1.6987 H            1    LIG   0.0000
  74 H           -1.5135     7.1132     1.0319 H            1    LIG   0.0000
  75 H           -2.6494     7.8451     0.1150 H            1    LIG   0.0000
@<TRIPOS>BOND
   1        1        2 1
   2        2        3 1
   3        2        4 1
   4        4        5 1
   5        5        6 2
   6        6        7 1
   7        7        8 2
   8        8        9 1
   9        9       10 1
  10       10       11 1
  11       11       12 1
  12       12       13 ar
  13       13       14 ar
  14       14       15 1
  15       15       16 1
  16       16       17 1
  17       17       18 1
  18       17       19 1
  19       17       20 1
  20       14       21 ar
  21       21       22 ar
  22       22       23 ar
  23       23       12 ar
  24       23       24 1
  25       24        9 1
  26        8       25 1
  27       25        5 1
  28       25       26 1
  29       26       27 1
  30       27       28 ar
  31       28       29 ar
  32       29       30 ar
  33       30       31 ar
  34       31       32 ar
  35       32       27 ar
  36       32       33 1
  37       33       34 1
  38       33       35 1
  39        1       36 1
  40        1       37 1
  41        1       38 1
  42        2       39 1
  43        3       40 1
  44        3       41 1
  45        3       42 1
  46        4       43 1
  47        4       44 1
  48       10       45 1
  49       10       46 1
  50       11       47 1
  51       11       48 1
  52       13       49 1
  53       16       50 1
  54       16       51 1
  55       18       52 1
  56       18       53 1
  57       18       54 1
  58       19       55 1
  59       19       56 1
  60       19       57 1
  61       20       58 1
  62       20       59 1
  63       20       60 1
  64       21       61 1
  65       22       62 1
  66       24       63 1
  67       24       64 1
  68       26       65 1
  69       26       66 1
  70       29       67 1
  71       30       68 1
  72       31       69 1
  73       34       70 1
  74       34       71 1
  75       34       72 1
  76       35       73 1
  77       35       74 1
  78       35       75 1

@<TRIPOS>MOLECULE

  75   78
SMALL
USER_CHARGES
@<TRIPOS>ATOM
   1 C1           1.9917     8.7898     0.5921 C.3          1    LIG   0.0000
   2 C2           2.3027     7.3208     0.3566 C.3          1    LIG   0.0000
   3 C3           3.5875     6.9525     1.0805 C.3          1    LIG   0.0000
   4 C4           1.1605     6.4697     0.8870 C.3          1    LIG   0.0000
   5 C5           1.4715     5.0007     0.6516 C.2          1    LIG   0.0000
   6 N6           2.6534     4.4778     0.4313 N.2          1    LIG   0.0000
   7 N7           2.5406     3.1717     0.2688 N.2          1    LIG   0.0000
   8 C8           1.2810     2.8321     0.3905 C.2          1    LIG   0.0000
   9 N9           0.7589     1.5402     0.2946 N.pl3        1    LIG   0.0000
  10 C10          1.6818     0.4219     0.0282 C.3          1    LIG   0.0000
  11 C11          1.1084    -0.9377     0.4032 C.3          1    LIG   0.0000
  12 C12         -0.2507    -1.0176    -0.2638 C.ar         1    LIG   0.0000
  13 C13         -0.6093    -2.2077    -0.8900 C.ar         1    LIG   0.0000
  14 C14         -1.8339    -2.2665    -1.5449 C.ar         1    LIG   0.0000
  15 O15         -2.1785    -3.4029    -2.1878 O.3          1    LIG   0.0000
  16 C16         -1.5617    -4.5882    -1.7072 C.3          1    LIG   0.0000
  17 C17         -0.5638    -5.0933    -2.7365 C.3          1    LIG   0.0000
  18 C18         -0.2757    -6.5642    -2.4836 C.3          1    LIG   0.0000
  19 C19         -1.1443    -4.9232    -4.1309 C.3          1    LIG   0.0000
  20 C20          0.7265    -4.2977    -2.6243 C.3          1    LIG   0.0000
  21 C21         -2.6893    -1.1700    -1.5479 C.ar         1    LIG   0.0000
  22 C22         -2.3352     0.0087    -0.8997 C.ar         1    LIG   0.0000
  23 C23         -1.1053     0.0781    -0.2528 C.ar         1    LIG   0.0000
  24 C24         -0.6920     1.3551     0.4609 C.3          1    LIG   0.0000
  25 N25          0.5798     3.9735     0.6322 N.pl3        1    LIG   0.0000
  26 C26         -0.8719     4.0800     0.8316 C.3          1    LIG   0.0000
  27 C27         -1.5522     4.3047    -0.5089 C.ar         1    LIG   0.0000
  28 N28         -1.1413     3.6521    -1.6078 N.ar         1    LIG   0.0000
  29 C29         -1.7264     3.8355    -2.8012 C.ar         1    LIG   0.0000
  30 C30         -2.7924     4.7171    -2.9369 C.ar         1    LIG   0.0000
  31 C31         -3.2350     5.4048    -1.8124 C.ar         1    LIG   0.0000
  32 C32         -2.6143     5.2009    -0.5849 C.ar         1    LIG   0.0000
  33 N33         -3.0711     5.9000     0.5389 N.pl3        1    LIG   0.0000
  34 C34         -4.1257     5.3231     1.3849 C.3          1    LIG   0.0000
  35 C35         -2.4959     7.2110     0.8728 C.3          1    LIG   0.0000
  36 H            2.7431     9.3498     0.2431 H            1    LIG   0.0000
  37 H            1.1464     9.0321     0.1158 H            1    LIG   0.0000
  38 H            1.8809     8.9542     1.5722 H            1    LIG   0.0000
  39 H            2.4135     7.1564    -0.6236 H            1    LIG   0.0000
  40 H            4.3390     7.5125     0.7315 H            1    LIG   0.0000
  41 H            3.4767     7.1168     2.0606 H            1    LIG   0.0000
  42 H            3.7922     5.9860     0.9256 H            1    LIG   0.0000
  43 H            1.0497     6.6340     1.8672 H            1    LIG   0.0000
  44 H            0.3152     6.7119     0.4108 H            1    LIG   0.0000
  45 H            2.5188     0.5692     0.5552 H            1    LIG   0.0000
  46 H            1.8992     0.4160    -0.9479 H            1    LIG   0.0000
  47 H            1.7026    -1.6694     0.0692 H            1    LIG   0.0000
  48 H            1.0130    -1.0126     1.3958 H            1    LIG   0.0000
  49 H           -0.0008    -3.0010    -0.8693 H            1    LIG   0.0000
  50 H           -2.2597    -5.2866    -1.5489 H            1    LIG   0.0000
  51 H           -1.0858    -4.3923    -0.8498 H            1    LIG   0.0000
  52 H            0.3808    -6.8965    -3.1608 H            1    LIG   0.0000
  53 H            0.1062    -6.6761    -1.5662 H            1    LIG   0.0000
  54 H           -1.1245    -7.0876    -2.5575 H            1    LIG   0.0000
  55 H           -0.4878    -5.2554    -4.8081 H            1    LIG   0.0000
  56 H           -1.9931    -5.4466    -4.2048 H            1    LIG   0.0000
  57 H           -1.3338    -3.9555    -4.2973 H            1    LIG   0.0000
  58 H            1.3830    -4.6300    -3.3015 H            1    LIG   0.0000
  59 H            0.5369    -3.3300    -2.7906 H            1    LIG   0.0000
  60 H            1.1084    -4.4096    -1.7069 H            1    LIG   0.0000
  61 H           -3.5683    -1.2296    -2.0211 H            1    LIG   0.0000
  62 H           -2.9547     0.7937    -0.8987 H            1    LIG   0.0000
  63 H           -1.1782     2.1342     0.0652 H            1    LIG   0.0000
  64 H           -0.9128     1.2836     1.4336 H            1    LIG   0.0000
  65 H           -1.0694     4.8496     1.4388 H            1    LIG   0.0000
  66 H           -1.2148     3.2350     1.2420 H            1    LIG   0.0000
  67 H           -1.3930     3.3339    -3.5994 H            1    LIG   0.0000
  68 H           -3.2318     4.8539    -3.8247 H            1    LIG   0.0000
  69 H           -3.9991     6.0456    -1.8864 H            1    LIG   0.0000
  70 H           -4.3295     5.9495     2.1373 H            1    LIG   0.0000
  71 H           -4.9505     5.1796     0.8380 H            1    LIG   0.0000
  72 H           -3.8146     4.4477     1.7549 H            1    LIG   0.0000
  73 H           -2.9336     7.5664     1.6987 H            1    LIG   0.0000
  74 H           -1.5135     7.1132     1.0319 H            1    LIG   0.0000
  75 H           -2.6494     7.8451     0.1150 H            1    LIG   0.0000
@<TRIPOS>BOND
   1        1        2 1
   2        2        3 1
   3        2        4 1
   4        4        5 1
   5        5        6 2
   6        6        7 1
   7        7        8 2
   8        8        9 1
   9        9       10 1
  10       10       11 1
  11       11       12 1
  12       12       13 ar
  13       13       14 ar
  14       14       15 1
  15       15       16 1
  16       16       17 1
  17       17       18 1
  18       17       19 1
  19       17       20 1
  20       14       21 ar
  21       21       22 ar
  22       22       23 ar
  23       23       12 ar
  24       23       24 1
  25       24        9 1
  26        8       25 1
  27       25        5 1
  28       25       26 1
  29       26       27 1
  30       27       28 ar
  31       28       29 ar
  32       29       30 ar
  33       30       31 ar
  34       31       32 ar
  35       32       27 ar
  36       32       33 1
  37       33       34 1
  38       33       35 1
  39        1       36 1
  40        1       37 1
  41        1       38 1
  42        2       39 1
  43        3       40 1
  44        3       41 1
  45        3       42 1
  46        4       43 1
  47        4       44 1
  48       10       45 1
  49       10       46 1
  50       11       47 1
  51       11       48 1
  52       13       49 1
  53       16       50 1
  54       16       51 1
  55       18       52 1
  56       18       53 1
  57       18       54 1
  58       19       55 1
  59       19       56 1
  60       19       57 1
  61       20       58 1
  62       20       59 1
  63       20       60 1
  64       21       61 1
  65       22       62 1
  66       24       63 1
  67       24       64 1
  68       26       65 1
  69       26       66 1
  70       29       67 1
  71       30       68 1
  72       31       69 1
  73       34       70 1
  74       34       71 1
  75       34       72 1
  76       35       73 1
  77       35       74 1
  78       35       75 1

@<TRIPOS>MOLECULE

  75   78
SMALL
USER_CHARGES
@<TRIPOS>ATOM
   1 C1           2.1370     8.7446     1.0659 C.3          1    LIG   0.0000
   2 C2           2.4480     7.2756     0.8304 C.3          1    LIG   0.0000
   3 C3           3.4028     6.7813     1.9049 C.3          1    LIG   0.0000
   4 C4           1.1605     6.4697     0.8870 C.3          1    LIG   0.0000
   5 C5           1.4715     5.0007     0.6516 C.2          1    LIG   0.0000
   6 N6           2.6534     4.4778     0.4313 N.2          1    LIG   0.0000
   7 N7           2.5406     3.1717     0.2688 N.2          1    LIG   0.0000
   8 C8           1.2810     2.8321     0.3905 C.2          1    LIG   0.0000
   9 N9           0.7589     1.5402     0.2946 N.pl3        1    LIG   0.0000
  10 C10          1.6818     0.4219     0.0282 C.3          1    LIG   0.0000
  11 C11          1.1084    -0.9377     0.4032 C.3          1    LIG   0.0000
  12 C12         -0.2507    -1.0176    -0.2638 C.ar         1    LIG   0.0000
  13 C13         -0.6093    -2.2077    -0.8900 C.ar         1    LIG   0.0000
  14 C14         -1.8339    -2.2665    -1.5449 C.ar         1    LIG   0.0000
  15 O15         -2.1785    -3.4029    -2.1878 O.3          1    LIG   0.0000
  16 C16         -3.4442    -3.3816    -2.8310 C.3          1    LIG   0.0000
  17 C17         -3.6917    -4.7204    -3.5068 C.3          1    LIG   0.0000
  18 C18         -5.0466    -4.6977    -4.1954 C.3          1    LIG   0.0000
  19 C19         -2.6040    -4.9766    -4.5372 C.3          1    LIG   0.0000
  20 C20         -3.6719    -5.8259    -2.4637 C.3          1    LIG   0.0000
  21 C21         -2.6893    -1.1700    -1.5479 C.ar         1    LIG   0.0000
  22 C22         -2.3352     0.0087    -0.8997 C.ar         1    LIG   0.0000
  23 C23         -1.1053     0.0781    -0.2528 C.ar         1    LIG   0.0000
  24 C24         -0.6920     1.3551     0.4609 C.3          1    LIG   0.0000
  25 N25          0.5798     3.9735     0.6322 N.pl3        1    LIG   0.0000
  26 C26         -0.8719     4.0800     0.8316 C.3          1    LIG   0.0000
  27 C27         -1.2984     3.1501     1.9556 C.ar         1    LIG   0.0000
  28 N28         -0.3860     2.5433     2.7312 N.ar         1    LIG   0.0000
  29 C29         -0.7396     1.7180     3.7283 C.ar         1    LIG   0.0000
  30 C30         -2.0803     1.4651     3.9935 C.ar         1    LIG   0.0000
  31 C31         -3.0434     2.0819     3.2027 C.ar         1    LIG   0.0000
  32 C32         -2.6558     2.9332     2.1739 C.ar         1    LIG   0.0000
  33 N33         -3.6366     3.5477     1.3861 N.pl3        1    LIG   0.0000
  34 C34         -3.7219     5.0142     1.3299 C.3          1    LIG   0.0000
  35 C35         -4.5811     2.7265     0.6151 C.3          1    LIG   0.0000
  36 H            2.9840     9.2748     1.0287 H            1    LIG   0.0000
  37 H            1.5088     9.0698     0.3590 H            1    LIG   0.0000
  38 H            1.7135     8.8558     1.9650 H            1    LIG   0.0000
  39 H            2.8716     7.1645    -0.0686 H            1    LIG   0.0000
  40 H            4.2499     7.3115     1.8677 H            1    LIG   0.0000
  41 H            2.9793     6.8924     2.8039 H            1    LIG   0.0000
  42 H            3.6075     5.8148     1.7500 H            1    LIG   0.0000
  43 H            0.7370     6.5808     1.7861 H            1    LIG   0.0000
  44 H            0.5324     6.7949     0.1802 H            1    LIG   0.0000
  45 H            2.5188     0.5692     0.5552 H            1    LIG   0.0000
  46 H            1.8992     0.4160    -0.9479 H            1    LIG   0.0000
  47 H            1.7026    -1.6694     0.0692 H            1    LIG   0.0000
  48 H            1.0130    -1.0126     1.3958 H            1    LIG   0.0000
  49 H           -0.0008    -3.0010    -0.8693 H            1    LIG   0.0000
  50 H           -3.4572    -2.6544    -3.5172 H            1    LIG   0.0000
  51 H           -4.1598    -3.2131    -2.1531 H            1    LIG   0.0000
  52 H           -5.2094    -5.5785    -4.6400 H            1    LIG   0.0000
  53 H           -5.7622    -4.5292    -3.5175 H            1    LIG   0.0000
  54 H           -5.0596    -3.9704    -4.8816 H            1    LIG   0.0000
  55 H           -2.7668    -5.8574    -4.9818 H            1    LIG   0.0000
  56 H           -2.6170    -4.2493    -5.2234 H            1    LIG   0.0000
  57 H           -1.7126    -4.9916    -4.0842 H            1    LIG   0.0000
  58 H           -3.8347    -6.7067    -2.9084 H            1    LIG   0.0000
  59 H           -2.7805    -5.8408    -2.0108 H            1    LIG   0.0000
  60 H           -4.3875    -5.6574    -1.7859 H            1    LIG   0.0000
  61 H           -3.5683    -1.2296    -2.0211 H            1    LIG   0.0000
  62 H           -2.9547     0.7937    -0.8987 H            1    LIG   0.0000
  63 H           -1.1782     2.1342     0.0652 H            1    LIG   0.0000
  64 H           -0.9128     1.2836     1.4336 H            1    LIG   0.0000
  65 H           -1.3439     3.8223    -0.0115 H            1    LIG   0.0000
  66 H           -1.1073     5.0220     1.0708 H            1    LIG   0.0000
  67 H           -0.0329     1.2814     4.2850 H            1    LIG   0.0000
  68 H           -2.3467     0.8523     4.7374 H            1    LIG   0.0000
  69 H           -4.0142     1.9134     3.3738 H            1    LIG   0.0000
  70 H           -4.4723     5.2815     0.7254 H            1    LIG   0.0000
  71 H           -3.8892     5.3737     2.2479 H            1    LIG   0.0000
  72 H           -2.8624     5.3849     0.9782 H            1    LIG   0.0000
  73 H           -5.2082     3.3222     0.1132 H            1    LIG   0.0000
  74 H           -4.0754     2.1549    -0.0311 H            1    LIG   0.0000
  75 H           -5.1022     2.1437     1.2387 H            1    LIG   0.0000
@<TRIPOS>BOND
   1        1        2 1
   2        2        3 1
   3        2        4 1
   4        4        5 1
   5        5        6 2
   6        6        7 1
   7        7        8 2
   8        8        9 1
   9        9       10 1
  10       10       11 1
  11       11       12 1
  12       12       13 ar
  13       13       14 ar
  14       14       15 1
  15       15       16 1
  16       16       17 1
  17       17       18 1
  18       17       19 1
  19       17       20 1
  20       14       21 ar
  21       21       22 ar
  22       22       23 ar
  23       23       12 ar
  24       23       24 1
  25       24        9 1
  26        8       25 1
  27       25        5 1
  28       25       26 1
  29       26       27 1
  30       27       28 ar
  31       28       29 ar
  32       29       30 ar
  33       30       31 ar
  34       31       32 ar
  35       32       27 ar
  36       32       33 1
  37       33       34 1
  38       33       35 1
  39        1       36 1
  40        1       37 1
  41        1       38 1
  42        2       39 1
  43        3       40 1
  44        3       41 1
  45        3       42 1
  46        4       43 1
  47        4       44 1
  48       10       45 1
  49       10       46 1
  50       11       47 1
  51       11       48 1
  52       13       49 1
  53       16       50 1
  54       16       51 1
  55       18       52 1
  56       18       53 1
  57       18       54 1
  58       19       55 1
  59       19       56 1
  60       19       57 1
  61       20       58 1
  62       20       59 1
  63       20       60 1
  64       21       61 1
  65       22       62 1
  66       24       63 1
  67       24       64 1
  68       26       65 1
  69       26       66 1
  70       29       67 1
  71       30       68 1
  72       31       69 1
  73       34       70 1
  74       34       71 1
  75       34       72 1
  76       35       73 1
  77       35       74 1
  78       35       75 1

@<TRIPOS>MOLECULE

  75   78
SMALL
USER_CHARGES
@<TRIPOS>ATOM
   1 C1           2.1370     8.7446     1.0659 C.3          1    LIG   0.0000
   2 C2           2.4480     7.2756     0.8304 C.3          1    LIG   0.0000
   3 C3           3.4028     6.7813     1.9049 C.3          1    LIG   0.0000
   4 C4           1.1605     6.4697     0.8870 C.3          1    LIG   0.0000
   5 C5           1.4715     5.0007     0.6516 C.2          1    LIG   0.0000
   6 N6           2.6534     4.4778     0.4313 N.2          1    LIG   0.0000
   7 N7           2.5406     3.1717     0.2688 N.2          1    LIG   0.0000
   8 C8           1.2810     2.8321     0.3905 C.2          1    LIG   0.0000
   9 N9           0.7589     1.5402     0.2946 N.pl3        1    LIG   0.0000
  10 C10          1.6818     0.4219     0.0282 C.3          1    LIG   0.0000
  11 C11          1.1084    -0.9377     0.4032 C.3          1    LIG   0.0000
  12 C12         -0.2507    -1.0176    -0.2638 C.ar         1    LIG   0.0000
  13 C13         -0.6093    -2.2077    -0.8900 C.ar         1    LIG   0.0000
  14 C14         -1.8339    -2.2665    -1.5449 C.ar         1    LIG   0.0000
  15 O15         -2.1785    -3.4029    -2.1878 O.3          1    LIG   0.0000
  16 C16         -1.2246    -4.4531    -2.1266 C.3          1    LIG   0.0000
  17 C17         -1.7486    -5.6584    -2.8902 C.3          1    LIG   0.0000
  18 C18         -0.7276    -6.7826    -2.8248 C.3          1    LIG   0.0000
  19 C19         -3.0550    -6.1237    -2.2680 C.3          1    LIG   0.0000
  20 C20         -1.9870    -5.2744    -4.3414 C.3          1    LIG   0.0000
  21 C21         -2.6893    -1.1700    -1.5479 C.ar         1    LIG   0.0000
  22 C22         -2.3352     0.0087    -0.8997 C.ar         1    LIG   0.0000
  23 C23         -1.1053     0.0781    -0.2528 C.ar         1    LIG   0.0000
  24 C24         -0.6920     1.3551     0.4609 C.3          1    LIG   0.0000
  25 N25          0.5798     3.9735     0.6322 N.pl3        1    LIG   0.0000
  26 C26         -0.8719     4.0800     0.8316 C.3          1    LIG   0.0000
  27 C27         -1.2984     3.1501     1.9556 C.ar         1    LIG   0.0000
  28 N28         -0.3860     2.5433     2.7312 N.ar         1    LIG   0.0000
  29 C29         -0.7396     1.7180     3.7283 C.ar         1    LIG   0.0000
  30 C30         -2.0803     1.4651     3.9935 C.ar         1    LIG   0.0000
  31 C31         -3.0434     2.0819     3.2027 C.ar         1    LIG   0.0000
  32 C32         -2.6558     2.9332     2.1739 C.ar         1    LIG   0.0000
  33 N33         -3.6366     3.5477     1.3861 N.pl3        1    LIG   0.0000
  34 C34         -3.7219     5.0142     1.3299 C.3          1    LIG   0.0000
  35 C35         -4.5811     2.7265     0.6151 C.3          1    LIG   0.0000
  36 H            2.9840     9.2748     1.0287 H            1    LIG   0.0000
  37 H            1.5088     9.0698     0.3590 H            1    LIG   0.0000
  38 H            1.7135     8.8558     1.9650 H            1    LIG   0.0000
  39 H            2.8716     7.1645    -0.0686 H            1    LIG   0.0000
  40 H            4.2499     7.3115     1.8677 H            1    LIG   0.0000
  41 H            2.9793     6.8924     2.8039 H            1    LIG   0.0000
  42 H            3.6075     5.8148     1.7500 H            1    LIG   0.0000
  43 H            0.7370     6.5808     1.7861 H            1    LIG   0.0000
  44 H            0.5324     6.7949     0.1802 H            1    LIG   0.0000
  45 H            2.5188     0.5692     0.5552 H            1    LIG   0.0000
  46 H            1.8992     0.4160    -0.9479 H            1    LIG   0.0000
  47 H            1.7026    -1.6694     0.0692 H            1    LIG   0.0000
  48 H            1.0130    -1.0126     1.3958 H            1    LIG   0.0000
  49 H           -0.0008    -3.0010    -0.8693 H            1    LIG   0.0000
  50 H           -1.0678    -4.7057    -1.1719 H            1    LIG   0.0000
  51 H           -0.3651    -4.1470    -2.5360 H            1    LIG   0.0000
  52 H           -1.0723    -7.5756    -3.3271 H            1    LIG   0.0000
  53 H            0.1319    -6.4765    -3.2342 H            1    LIG   0.0000
  54 H           -0.5707    -7.0353    -1.8700 H            1    LIG   0.0000
  55 H           -3.3997    -6.9167    -2.7703 H            1    LIG   0.0000
  56 H           -2.8981    -6.3763    -1.3132 H            1    LIG   0.0000
  57 H           -3.7267    -5.3841    -2.3110 H            1    LIG   0.0000
  58 H           -2.3317    -6.0674    -4.8438 H            1    LIG   0.0000
  59 H           -2.6587    -4.5348    -4.3845 H            1    LIG   0.0000
  60 H           -1.1275    -4.9683    -4.7508 H            1    LIG   0.0000
  61 H           -3.5683    -1.2296    -2.0211 H            1    LIG   0.0000
  62 H           -2.9547     0.7937    -0.8987 H            1    LIG   0.0000
  63 H           -1.1782     2.1342     0.0652 H            1    LIG   0.0000
  64 H           -0.9128     1.2836     1.4336 H            1    LIG   0.0000
  65 H           -1.3439     3.8223    -0.0115 H            1    LIG   0.0000
  66 H           -1.1073     5.0220     1.0708 H            1    LIG   0.0000
  67 H           -0.0329     1.2814     4.2850 H            1    LIG   0.0000
  68 H           -2.3467     0.8523     4.7374 H            1    LIG   0.0000
  69 H           -4.0142     1.9134     3.3738 H            1    LIG   0.0000
  70 H           -4.4723     5.2815     0.7254 H            1    LIG   0.0000
  71 H           -3.8892     5.3737     2.2479 H            1    LIG   0.0000
  72 H           -2.8624     5.3849     0.9782 H            1    LIG   0.0000
  73 H           -5.2082     3.3222     0.1132 H            1    LIG   0.0000
  74 H           -4.0754     2.1549    -0.0311 H            1    LIG   0.0000
  75 H           -5.1022     2.1437     1.2387 H            1    LIG   0.0000
@<TRIPOS>BOND
   1        1        2 1
   2        2        3 1
   3        2        4 1
   4        4        5 1
   5        5        6 2
   6        6        7 1
   7        7        8 2
   8        8        9 1
   9        9       10 1
  10       10       11 1
  11       11       12 1
  12       12       13 ar
  13       13       14 ar
  14       14       15 1
  15       15       16 1
  16       16       17 1
  17       17       18 1
  18       17       19 1
  19       17       20 1
  20       14       21 ar
  21       21       22 ar
  22       22       23 ar
  23       23       12 ar
  24       23       24 1
  25       24        9 1
  26        8       25 1
  27       25        5 1
  28       25       26 1
  29       26       27 1
  30       27       28 ar
  31       28       29 ar
  32       29       30 ar
  33       30       31 ar
  34       31       32 ar
  35       32       27 ar
  36       32       33 1
  37       33       34 1
  38       33       35 1
  39        1       36 1
  40        1       37 1
  41        1       38 1
  42        2       39 1
  43        3       40 1
  44        3       41 1
  45        3       42 1
  46        4       43 1
  47        4       44 1
  48       10       45 1
  49       10       46 1
  50       11       47 1
  51       11       48 1
  52       13       49 1
  53       16       50 1
  54       16       51 1
  55       18       52 1
  56       18       53 1
  57       18       54 1
  58       19       55 1
  59       19       56 1
  60       19       57 1
  61       20       58 1
  62       20       59 1
  63       20       60 1
  64       21       61 1
  65       22       62 1
  66       24       63 1
  67       24       64 1
  68       26       65 1
  69       26       66 1
  70       29       67 1
  71       30       68 1
  72       31       69 1
  73       34       70 1
  74       34       71 1
  75       34       72 1
  76       35       73 1
  77       35       74 1
  78       35       75 1

@<TRIPOS>MOLECULE

  75   78
SMALL
USER_CHARGES
@<TRIPOS>ATOM
   1 C1           2.2917     8.6473     1.5346 C.3          1    LIG   0.0000
   2 C2           2.5156     7.2340     1.0218 C.3          1    LIG   0.0000
   3 C3           3.7637     6.6531     1.6661 C.3          1    LIG   0.0000
   4 C4           1.3150     6.3710     1.3742 C.3          1    LIG   0.0000
   5 C5           1.5389     4.9579     0.8616 C.2          1    LIG   0.0000
   6 N6           2.5908     4.5193     0.2136 N.2          1    LIG   0.0000
   7 N7           2.4357     3.2397    -0.0756 N.2          1    LIG   0.0000
   8 C8           1.2810     2.8321     0.3905 C.2          1    LIG   0.0000
   9 N9           0.7589     1.5402     0.2946 N.pl3        1    LIG   0.0000
  10 C10          1.6818     0.4219     0.0282 C.3          1    LIG   0.0000
  11 C11          1.1084    -0.9377     0.4032 C.3          1    LIG   0.0000
  12 C12         -0.2507    -1.0176    -0.2638 C.ar         1    LIG   0.0000
  13 C13         -0.6093    -2.2077    -0.8900 C.ar         1    LIG   0.0000
  14 C14         -1.8339    -2.2665    -1.5449 C.ar         1    LIG   0.0000
  15 O15         -2.1785    -3.4029    -2.1878 O.3          1    LIG   0.0000
  16 C16         -1.4802    -4.5708    -1.7817 C.3          1    LIG   0.0000
  17 C17         -2.2709    -5.8023    -2.1922 C.3          1    LIG   0.0000
  18 C18         -1.8203    -6.9935    -1.3624 C.3          1    LIG   0.0000
  19 C19         -3.7523    -5.5540    -1.9595 C.3          1    LIG   0.0000
  20 C20         -2.0308    -6.0909    -3.6651 C.3          1    LIG   0.0000
  21 C21         -2.6893    -1.1700    -1.5479 C.ar         1    LIG   0.0000
  22 C22         -2.3352     0.0087    -0.8997 C.ar         1    LIG   0.0000
  23 C23         -1.1053     0.0781    -0.2528 C.ar         1    LIG   0.0000
  24 C24         -0.6920     1.3551     0.4609 C.3          1    LIG   0.0000
  25 N25          0.6900     3.9025     0.9888 N.pl3        1    LIG   0.0000
  26 C26         -0.6232     3.9189     1.6472 C.3          1    LIG   0.0000
  27 C27         -1.5988     4.7314     0.8115 C.ar         1    LIG   0.0000
  28 N28         -1.5976     4.6435    -0.5281 N.ar         1    LIG   0.0000
  29 C29         -2.4490     5.3519    -1.2855 C.ar         1    LIG   0.0000
  30 C30         -3.3725     6.2080    -0.6974 C.ar         1    LIG   0.0000
  31 C31         -3.3919     6.3159     0.6887 C.ar         1    LIG   0.0000
  32 C32         -2.5006     5.5736     1.4554 C.ar         1    LIG   0.0000
  33 N33         -2.5320     5.6921     2.8502 N.pl3        1    LIG   0.0000
  34 C34         -2.8032     4.5110     3.6822 C.3          1    LIG   0.0000
  35 C35         -2.2938     6.9976     3.4825 C.3          1    LIG   0.0000
  36 H            3.0816     9.2151     1.3027 H            1    LIG   0.0000
  37 H            1.4706     9.0295     1.1107 H            1    LIG   0.0000
  38 H            2.1756     8.6272     2.5276 H            1    LIG   0.0000
  39 H            2.6317     7.2542     0.0288 H            1    LIG   0.0000
  40 H            4.5536     7.2209     1.4343 H            1    LIG   0.0000
  41 H            3.6477     6.6330     2.6592 H            1    LIG   0.0000
  42 H            3.9111     5.7233     1.3288 H            1    LIG   0.0000
  43 H            1.1990     6.3509     2.3673 H            1    LIG   0.0000
  44 H            0.4939     6.7532     0.9503 H            1    LIG   0.0000
  45 H            2.5188     0.5692     0.5552 H            1    LIG   0.0000
  46 H            1.8992     0.4160    -0.9479 H            1    LIG   0.0000
  47 H            1.7026    -1.6694     0.0692 H            1    LIG   0.0000
  48 H            1.0130    -1.0126     1.3958 H            1    LIG   0.0000
  49 H           -0.0008    -3.0010    -0.8693 H            1    LIG   0.0000
  50 H           -1.3672    -4.5630    -0.7881 H            1    LIG   0.0000
  51 H           -0.5812    -4.5907    -2.2193 H            1    LIG   0.0000
  52 H           -2.3405    -7.8037    -1.6325 H            1    LIG   0.0000
  53 H           -0.8457    -7.1568    -1.5155 H            1    LIG   0.0000
  54 H           -1.9783    -6.8036    -0.3934 H            1    LIG   0.0000
  55 H           -4.2725    -6.3643    -2.2295 H            1    LIG   0.0000
  56 H           -3.9103    -5.3642    -0.9905 H            1    LIG   0.0000
  57 H           -4.0487    -4.7704    -2.5054 H            1    LIG   0.0000
  58 H           -2.5510    -6.9011    -3.9351 H            1    LIG   0.0000
  59 H           -2.3272    -5.3073    -4.2110 H            1    LIG   0.0000
  60 H           -1.0561    -6.2543    -3.8182 H            1    LIG   0.0000
  61 H           -3.5683    -1.2296    -2.0211 H            1    LIG   0.0000
  62 H           -2.9547     0.7937    -0.8987 H            1    LIG   0.0000
  63 H           -1.1782     2.1342     0.0652 H            1    LIG   0.0000
  64 H           -0.9128     1.2836     1.4336 H            1    LIG   0.0000
  65 H           -0.5365     4.3320     2.5538 H            1    LIG   0.0000
  66 H           -0.9620     2.9825     1.7386 H            1    LIG   0.0000
  67 H           -2.4187     5.2632    -2.2811 H            1    LIG   0.0000
  68 H           -4.0098     6.7353    -1.2594 H            1    LIG   0.0000
  69 H           -4.0465     6.9270     1.1339 H            1    LIG   0.0000
  70 H           -2.7887     4.7726     4.6473 H            1    LIG   0.0000
  71 H           -3.7024     4.1397     3.4510 H            1    LIG   0.0000
  72 H           -2.1029     3.8171     3.5144 H            1    LIG   0.0000
  73 H           -2.3524     6.9023     4.4762 H            1    LIG   0.0000
  74 H           -1.3837     7.3280     3.2324 H            1    LIG   0.0000
  75 H           -2.9833     7.6506     3.1690 H            1    LIG   0.0000
@<TRIPOS>BOND
   1        1        2 1
   2        2        3 1
   3        2        4 1
   4        4        5 1
   5        5        6 2
   6        6        7 1
   7        7        8 2
   8        8        9 1
   9        9       10 1
  10       10       11 1
  11       11       12 1
  12       12       13 ar
  13       13       14 ar
  14       14       15 1
  15       15       16 1
  16       16       17 1
  17       17       18 1
  18       17       19 1
  19       17       20 1
  20       14       21 ar
  21       21       22 ar
  22       22       23 ar
  23       23       12 ar
  24       23       24 1
  25       24        9 1
  26        8       25 1
  27       25        5 1
  28       25       26 1
  29       26       27 1
  30       27       28 ar
  31       28       29 ar
  32       29       30 ar
  33       30       31 ar
  34       31       32 ar
  35       32       27 ar
  36       32       33 1
  37       33       34 1
  38       33       35 1
  39        1       36 1
  40        1       37 1
  41        1       38 1
  42        2       39 1
  43        3       40 1
  44        3       41 1
  45        3       42 1
  46        4       43 1
  47        4       44 1
  48       10       45 1
  49       10       46 1
  50       11       47 1
  51       11       48 1
  52       13       49 1
  53       16       50 1
  54       16       51 1
  55       18       52 1
  56       18       53 1
  57       18       54 1
  58       19       55 1
  59       19       56 1
  60       19       57 1
  61       20       58 1
  62       20       59 1
  63       20       60 1
  64       21       61 1
  65       22       62 1
  66       24       63 1
  67       24       64 1
  68       26       65 1
  69       26       66 1
  70       29       67 1
  71       30       68 1
  72       31       69 1
  73       34       70 1
  74       34       71 1
  75       34       72 1
  76       35       73 1
  77       35       74 1
  78       35       75 1

@<TRIPOS>MOLECULE

  75   78
SMALL
USER_CHARGES
@<TRIPOS>ATOM
   1 C1           2.2917     8.6473     1.5346 C.3          1    LIG   0.0000
   2 C2           2.5156     7.2340     1.0218 C.3          1    LIG   0.0000
   3 C3           3.7637     6.6531     1.6661 C.3          1    LIG   0.0000
   4 C4           1.3150     6.3710     1.3742 C.3          1    LIG   0.0000
   5 C5           1.5389     4.9579     0.8616 C.2          1    LIG   0.0000
   6 N6           2.5908     4.5193     0.2136 N.2          1    LIG   0.0000
   7 N7           2.4357     3.2397    -0.0756 N.2          1    LIG   0.0000
   8 C8           1.2810     2.8321     0.3905 C.2          1    LIG   0.0000
   9 N9           0.7589     1.5402     0.2946 N.pl3        1    LIG   0.0000
  10 C10          1.6818     0.4219     0.0282 C.3          1    LIG   0.0000
  11 C11          1.1084    -0.9377     0.4032 C.3          1    LIG   0.0000
  12 C12         -0.2507    -1.0176    -0.2638 C.ar         1    LIG   0.0000
  13 C13         -0.6093    -2.2077    -0.8900 C.ar         1    LIG   0.0000
  14 C14         -1.8339    -2.2665    -1.5449 C.ar         1    LIG   0.0000
  15 O15         -2.1785    -3.4029    -2.1878 O.3          1    LIG   0.0000
  16 C16         -1.0956    -4.2176    -2.6121 C.3          1    LIG   0.0000
  17 C17         -1.5679    -5.1568    -3.7099 C.3          1    LIG   0.0000
  18 C18         -0.3688    -5.6605    -4.4965 C.3          1    LIG   0.0000
  19 C19         -2.2979    -6.3362    -3.0883 C.3          1    LIG   0.0000
  20 C20         -2.5095    -4.4127    -4.6428 C.3          1    LIG   0.0000
  21 C21         -2.6893    -1.1700    -1.5479 C.ar         1    LIG   0.0000
  22 C22         -2.3352     0.0087    -0.8997 C.ar         1    LIG   0.0000
  23 C23         -1.1053     0.0781    -0.2528 C.ar         1    LIG   0.0000
  24 C24         -0.6920     1.3551     0.4609 C.3          1    LIG   0.0000
  25 N25          0.6900     3.9025     0.9888 N.pl3        1    LIG   0.0000
  26 C26         -0.6232     3.9189     1.6472 C.3          1    LIG   0.0000
  27 C27         -1.4844     5.0104     1.0329 C.ar         1    LIG   0.0000
  28 N28         -1.0130     5.7836     0.0419 N.ar         1    LIG   0.0000
  29 C29         -1.7549     6.7533    -0.5144 C.ar         1    LIG   0.0000
  30 C30         -3.0531     6.9879    -0.0769 C.ar         1    LIG   0.0000
  31 C31         -3.5627     6.1998     0.9491 C.ar         1    LIG   0.0000
  32 C32         -2.7770     5.2006     1.5126 C.ar         1    LIG   0.0000
  33 N33         -3.3035     4.4145     2.5447 N.pl3        1    LIG   0.0000
  34 C34         -4.7478     4.1468     2.6011 C.3          1    LIG   0.0000
  35 C35         -2.4119     3.8568     3.5718 C.3          1    LIG   0.0000
  36 H            3.0816     9.2151     1.3027 H            1    LIG   0.0000
  37 H            1.4706     9.0295     1.1107 H            1    LIG   0.0000
  38 H            2.1756     8.6272     2.5276 H            1    LIG   0.0000
  39 H            2.6317     7.2542     0.0288 H            1    LIG   0.0000
  40 H            4.5536     7.2209     1.4343 H            1    LIG   0.0000
  41 H            3.6477     6.6330     2.6592 H            1    LIG   0.0000
  42 H            3.9111     5.7233     1.3288 H            1    LIG   0.0000
  43 H            1.1990     6.3509     2.3673 H            1    LIG   0.0000
  44 H            0.4939     6.7532     0.9503 H            1    LIG   0.0000
  45 H            2.5188     0.5692     0.5552 H            1    LIG   0.0000
  46 H            1.8992     0.4160    -0.9479 H            1    LIG   0.0000
  47 H            1.7026    -1.6694     0.0692 H            1    LIG   0.0000
  48 H            1.0130    -1.0126     1.3958 H            1    LIG   0.0000
  49 H           -0.0008    -3.0010    -0.8693 H            1    LIG   0.0000
  50 H           -0.7578    -4.7529    -1.8379 H            1    LIG   0.0000
  51 H           -0.3600    -3.6381    -2.9629 H            1    LIG   0.0000
  52 H           -0.6795    -6.2784    -5.2187 H            1    LIG   0.0000
  53 H            0.1114    -4.8845    -4.9055 H            1    LIG   0.0000
  54 H            0.2507    -6.1499    -3.8828 H            1    LIG   0.0000
  55 H           -2.6086    -6.9541    -3.8106 H            1    LIG   0.0000
  56 H           -1.6784    -6.8257    -2.4746 H            1    LIG   0.0000
  57 H           -3.0868    -6.0048    -2.5708 H            1    LIG   0.0000
  58 H           -2.8203    -5.0306    -5.3650 H            1    LIG   0.0000
  59 H           -3.2985    -4.0814    -4.1253 H            1    LIG   0.0000
  60 H           -2.0293    -3.6368    -5.0518 H            1    LIG   0.0000
  61 H           -3.5683    -1.2296    -2.0211 H            1    LIG   0.0000
  62 H           -2.9547     0.7937    -0.8987 H            1    LIG   0.0000
  63 H           -1.1782     2.1342     0.0652 H            1    LIG   0.0000
  64 H           -0.9128     1.2836     1.4336 H            1    LIG   0.0000
  65 H           -0.5043     4.0982     2.6238 H            1    LIG   0.0000
  66 H           -1.0695     3.0327     1.5229 H            1    LIG   0.0000
  67 H           -1.3708     7.3117    -1.2497 H            1    LIG   0.0000
  68 H           -3.6091     7.7084    -0.4914 H            1    LIG   0.0000
  69 H           -4.4935     6.3516     1.2815 H            1    LIG   0.0000
  70 H           -4.9499     3.5740     3.3955 H            1    LIG   0.0000
  71 H           -5.2442     5.0115     2.6787 H            1    LIG   0.0000
  72 H           -5.0318     3.6730     1.7676 H            1    LIG   0.0000
  73 H           -2.9493     3.3256     4.2269 H            1    LIG   0.0000
  74 H           -1.7338     3.2634     3.1381 H            1    LIG   0.0000
  75 H           -1.9462     4.6019     4.0492 H            1    LIG   0.0000
@<TRIPOS>BOND
   1        1        2 1
   2        2        3 1
   3        2        4 1
   4        4        5 1
   5        5        6 2
   6        6        7 1
   7        7        8 2
   8        8        9 1
   9        9       10 1
  10       10       11 1
  11       11       12 1
  12       12       13 ar
  13       13       14 ar
  14       14       15 1
  15       15       16 1
  16       16       17 1
  17       17       18 1
  18       17       19 1
  19       17       20 1
  20       14       21 ar
  21       21       22 ar
  22       22       23 ar
  23       23       12 ar
  24       23       24 1
  25       24        9 1
  26        8       25 1
  27       25        5 1
  28       25       26 1
  29       26       27 1
  30       27       28 ar
  31       28       29 ar
  32       29       30 ar
  33       30       31 ar
  34       31       32 ar
  35       32       27 ar
  36       32       33 1
  37       33       34 1
  38       33       35 1
  39        1       36 1
  40        1       37 1
  41        1       38 1
  42        2       39 1
  43        3       40 1
  44        3       41 1
  45        3       42 1
  46        4       43 1
  47        4       44 1
  48       10       45 1
  49       10       46 1
  50       11       47 1
  51       11       48 1
  52       13       49 1
  53       16       50 1
  54       16       51 1
  55       18       52 1
  56       18       53 1
  57       18       54 1
  58       19       55 1
  59       19       56 1
  60       19       57 1
  61       20       58 1
  62       20       59 1
  63       20       60 1
  64       21       61 1
  65       22       62 1
  66       24       63 1
  67       24       64 1
  68       26       65 1
  69       26       66 1
  70       29       67 1
  71       30       68 1
  72       31       69 1
  73       34       70 1
  74       34       71 1
  75       34       72 1
  76       35       73 1
  77       35       74 1
  78       35       75 1

@<TRIPOS>MOLECULE

  75   78
SMALL
USER_CHARGES
@<TRIPOS>ATOM
   1 C1           2.1177     8.7002     1.0713 C.3          1    LIG   0.0000
   2 C2           2.5156     7.2340     1.0218 C.3          1    LIG   0.0000
   3 C3           3.6336     6.9785     2.0195 C.3          1    LIG   0.0000
   4 C4           1.3150     6.3710     1.3742 C.3          1    LIG   0.0000
   5 C5           1.5389     4.9579     0.8616 C.2          1    LIG   0.0000
   6 N6           2.5908     4.5193     0.2136 N.2          1    LIG   0.0000
   7 N7           2.4357     3.2397    -0.0756 N.2          1    LIG   0.0000
   8 C8           1.2810     2.8321     0.3905 C.2          1    LIG   0.0000
   9 N9           0.7589     1.5402     0.2946 N.pl3        1    LIG   0.0000
  10 C10          1.6818     0.4219     0.0282 C.3          1    LIG   0.0000
  11 C11          1.1084    -0.9377     0.4032 C.3          1    LIG   0.0000
  12 C12         -0.2507    -1.0176    -0.2638 C.ar         1    LIG   0.0000
  13 C13         -0.6093    -2.2077    -0.8900 C.ar         1    LIG   0.0000
  14 C14         -1.8339    -2.2665    -1.5449 C.ar         1    LIG   0.0000
  15 O15         -2.1785    -3.4029    -2.1878 O.3          1    LIG   0.0000
  16 C16         -3.4442    -3.3816    -2.8310 C.3          1    LIG   0.0000
  17 C17         -3.6917    -4.7204    -3.5068 C.3          1    LIG   0.0000
  18 C18         -5.0466    -4.6977    -4.1954 C.3          1    LIG   0.0000
  19 C19         -2.6040    -4.9766    -4.5372 C.3          1    LIG   0.0000
  20 C20         -3.6719    -5.8259    -2.4637 C.3          1    LIG   0.0000
  21 C21         -2.6893    -1.1700    -1.5479 C.ar         1    LIG   0.0000
  22 C22         -2.3352     0.0087    -0.8997 C.ar         1    LIG   0.0000
  23 C23         -1.1053     0.0781    -0.2528 C.ar         1    LIG   0.0000
  24 C24         -0.6920     1.3551     0.4609 C.3          1    LIG   0.0000
  25 N25          0.6900     3.9025     0.9888 N.pl3        1    LIG   0.0000
  26 C26         -0.6232     3.9189     1.6472 C.3          1    LIG   0.0000
  27 C27         -1.4844     5.0104     1.0329 C.ar         1    LIG   0.0000
  28 N28         -1.0130     5.7836     0.0419 N.ar         1    LIG   0.0000
  29 C29         -1.7549     6.7533    -0.5144 C.ar         1    LIG   0.0000
  30 C30         -3.0531     6.9879    -0.0769 C.ar         1    LIG   0.0000
  31 C31         -3.5627     6.1998     0.9491 C.ar         1    LIG   0.0000
  32 C32         -2.7770     5.2006     1.5126 C.ar         1    LIG   0.0000
  33 N33         -3.3035     4.4145     2.5447 N.pl3        1    LIG   0.0000
  34 C34         -4.7478     4.1468     2.6011 C.3          1    LIG   0.0000
  35 C35         -2.4119     3.8568     3.5718 C.3          1    LIG   0.0000
  36 H            2.9076     9.2680     0.8394 H            1    LIG   0.0000
  37 H            1.3822     8.8683     0.4149 H            1    LIG   0.0000
  38 H            1.8015     8.9289     1.9920 H            1    LIG   0.0000
  39 H            2.8318     7.0053     0.1011 H            1    LIG   0.0000
  40 H            4.4234     7.5463     1.7877 H            1    LIG   0.0000
  41 H            3.3174     7.2072     2.9402 H            1    LIG   0.0000
  42 H            3.8953     6.0139     1.9870 H            1    LIG   0.0000
  43 H            1.1990     6.3509     2.3673 H            1    LIG   0.0000
  44 H            0.4939     6.7532     0.9503 H            1    LIG   0.0000
  45 H            2.5188     0.5692     0.5552 H            1    LIG   0.0000
  46 H            1.8992     0.4160    -0.9479 H            1    LIG   0.0000
  47 H            1.7026    -1.6694     0.0692 H            1    LIG   0.0000
  48 H            1.0130    -1.0126     1.3958 H            1    LIG   0.0000
  49 H           -0.0008    -3.0010    -0.8693 H            1    LIG   0.0000
  50 H           -3.4572    -2.6544    -3.5172 H            1    LIG   0.0000
  51 H           -4.1598    -3.2131    -2.1531 H            1    LIG   0.0000
  52 H           -5.2094    -5.5785    -4.6400 H            1    LIG   0.0000
  53 H           -5.7622    -4.5292    -3.5175 H            1    LIG   0.0000
  54 H           -5.0596    -3.9704    -4.8816 H            1    LIG   0.0000
  55 H           -2.7668    -5.8574    -4.9818 H            1    LIG   0.0000
  56 H           -2.6170    -4.2493    -5.2234 H            1    LIG   0.0000
  57 H           -1.7126    -4.9916    -4.0842 H            1    LIG   0.0000
  58 H           -3.8347    -6.7067    -2.9084 H            1    LIG   0.0000
  59 H           -2.7805    -5.8408    -2.0108 H            1    LIG   0.0000
  60 H           -4.3875    -5.6574    -1.7859 H            1    LIG   0.0000
  61 H           -3.5683    -1.2296    -2.0211 H            1    LIG   0.0000
  62 H           -2.9547     0.7937    -0.8987 H            1    LIG   0.0000
  63 H           -1.1782     2.1342     0.0652 H            1    LIG   0.0000
  64 H           -0.9128     1.2836     1.4336 H            1    LIG   0.0000
  65 H           -0.5043     4.0982     2.6238 H            1    LIG   0.0000
  66 H           -1.0695     3.0327     1.5229 H            1    LIG   0.0000
  67 H           -1.3708     7.3117    -1.2497 H            1    LIG   0.0000
  68 H           -3.6091     7.7084    -0.4914 H            1    LIG   0.0000
  69 H           -4.4935     6.3516     1.2815 H            1    LIG   0.0000
  70 H           -4.9499     3.5740     3.3955 H            1    LIG   0.0000
  71 H           -5.2442     5.0115     2.6787 H            1    LIG   0.0000
  72 H           -5.0318     3.6730     1.7676 H            1    LIG   0.0000
  73 H           -2.9493     3.3256     4.2269 H            1    LIG   0.0000
  74 H           -1.7338     3.2634     3.1381 H            1    LIG   0.0000
  75 H           -1.9462     4.6019     4.0492 H            1    LIG   0.0000
@<TRIPOS>BOND
   1        1        2 1
   2        2        3 1
   3        2        4 1
   4        4        5 1
   5        5        6 2
   6        6        7 1
   7        7        8 2
   8        8        9 1
   9        9       10 1
  10       10       11 1
  11       11       12 1
  12       12       13 ar
  13       13       14 ar
  14       14       15 1
  15       15       16 1
  16       16       17 1
  17       17       18 1
  18       17       19 1
  19       17       20 1
  20       14       21 ar
  21       21       22 ar
  22       22       23 ar
  23       23       12 ar
  24       23       24 1
  25       24        9 1
  26        8       25 1
  27       25        5 1
  28       25       26 1
  29       26       27 1
  30       27       28 ar
  31       28       29 ar
  32       29       30 ar
  33       30       31 ar
  34       31       32 ar
  35       32       27 ar
  36       32       33 1
  37       33       34 1
  38       33       35 1
  39        1       36 1
  40        1       37 1
  41        1       38 1
  42        2       39 1
  43        3       40 1
  44        3       41 1
  45        3       42 1
  46        4       43 1
  47        4       44 1
  48       10       45 1
  49       10       46 1
  50       11       47 1
  51       11       48 1
  52       13       49 1
  53       16       50 1
  54       16       51 1
  55       18       52 1
  56       18       53 1
  57       18       54 1
  58       19       55 1
  59       19       56 1
  60       19       57 1
  61       20       58 1
  62       20       59 1
  63       20       60 1
  64       21       61 1
  65       22       62 1
  66       24       63 1
  67       24       64 1
  68       26       65 1
  69       26       66 1
  70       29       67 1
  71       30       68 1
  72       31       69 1
  73       34       70 1
  74       34       71 1
  75       34       72 1
  76       35       73 1
  77       35       74 1
  78       35       75 1

@<TRIPOS>MOLECULE

  75   78
SMALL
USER_CHARGES
@<TRIPOS>ATOM
   1 C1           2.1177     8.7002     1.0713 C.3          1    LIG   0.0000
   2 C2           2.5156     7.2340     1.0218 C.3          1    LIG   0.0000
   3 C3           3.6336     6.9785     2.0195 C.3          1    LIG   0.0000
   4 C4           1.3150     6.3710     1.3742 C.3          1    LIG   0.0000
   5 C5           1.5389     4.9579     0.8616 C.2          1    LIG   0.0000
   6 N6           2.5908     4.5193     0.2136 N.2          1    LIG   0.0000
   7 N7           2.4357     3.2397    -0.0756 N.2          1    LIG   0.0000
   8 C8           1.2810     2.8321     0.3905 C.2          1    LIG   0.0000
   9 N9           0.7589     1.5402     0.2946 N.pl3        1    LIG   0.0000
  10 C10          1.6818     0.4219     0.0282 C.3          1    LIG   0.0000
  11 C11          1.1084    -0.9377     0.4032 C.3          1    LIG   0.0000
  12 C12         -0.2507    -1.0176    -0.2638 C.ar         1    LIG   0.0000
  13 C13         -0.6093    -2.2077    -0.8900 C.ar         1    LIG   0.0000
  14 C14         -1.8339    -2.2665    -1.5449 C.ar         1    LIG   0.0000
  15 O15         -2.1785    -3.4029    -2.1878 O.3          1    LIG   0.0000
  16 C16         -1.5617    -4.5882    -1.7072 C.3          1    LIG   0.0000
  17 C17         -2.5996    -5.4527    -1.0102 C.3          1    LIG   0.0000
  18 C18         -1.9394    -6.7215    -0.4958 C.3          1    LIG   0.0000
  19 C19         -3.1983    -4.6842     0.1566 C.3          1    LIG   0.0000
  20 C20         -3.6991    -5.8169    -1.9945 C.3          1    LIG   0.0000
  21 C21         -2.6893    -1.1700    -1.5479 C.ar         1    LIG   0.0000
  22 C22         -2.3352     0.0087    -0.8997 C.ar         1    LIG   0.0000
  23 C23         -1.1053     0.0781    -0.2528 C.ar         1    LIG   0.0000
  24 C24         -0.6920     1.3551     0.4609 C.3          1    LIG   0.0000
  25 N25          0.6900     3.9025     0.9888 N.pl3        1    LIG   0.0000
  26 C26         -0.6232     3.9189     1.6472 C.3          1    LIG   0.0000
  27 C27         -1.4844     5.0104     1.0329 C.ar         1    LIG   0.0000
  28 N28         -1.0130     5.7836     0.0419 N.ar         1    LIG   0.0000
  29 C29         -1.7549     6.7533    -0.5144 C.ar         1    LIG   0.0000
  30 C30         -3.0531     6.9879    -0.0769 C.ar         1    LIG   0.0000
  31 C31         -3.5627     6.1998     0.9491 C.ar         1    LIG   0.0000
  32 C32         -2.7770     5.2006     1.5126 C.ar         1    LIG   0.0000
  33 N33         -3.3035     4.4145     2.5447 N.pl3        1    LIG   0.0000
  34 C34         -4.7478     4.1468     2.6011 C.3          1    LIG   0.0000
  35 C35         -2.4119     3.8568     3.5718 C.3          1    LIG   0.0000
  36 H            2.9076     9.2680     0.8394 H            1    LIG   0.0000
  37 H            1.3822     8.8683     0.4149 H            1    LIG   0.0000
  38 H            1.8015     8.9289     1.9920 H            1    LIG   0.0000
  39 H            2.8318     7.0053     0.1011 H            1    LIG   0.0000
  40 H            4.4234     7.5463     1.7877 H            1    LIG   0.0000
  41 H            3.3174     7.2072     2.9402 H            1    LIG   0.0000
  42 H            3.8953     6.0139     1.9870 H            1    LIG   0.0000
  43 H            1.1990     6.3509     2.3673 H            1    LIG   0.0000
  44 H            0.4939     6.7532     0.9503 H            1    LIG   0.0000
  45 H            2.5188     0.5692     0.5552 H            1    LIG   0.0000
  46 H            1.8992     0.4160    -0.9479 H            1    LIG   0.0000
  47 H            1.7026    -1.6694     0.0692 H            1    LIG   0.0000
  48 H            1.0130    -1.0126     1.3958 H            1    LIG   0.0000
  49 H           -0.0008    -3.0010    -0.8693 H            1    LIG   0.0000
  50 H           -0.8383    -4.3486    -1.0596 H            1    LIG   0.0000
  51 H           -1.1678    -5.0939    -2.4748 H            1    LIG   0.0000
  52 H           -2.6223    -7.2903    -0.0373 H            1    LIG   0.0000
  53 H           -1.5456    -7.2271    -1.2634 H            1    LIG   0.0000
  54 H           -1.2160    -6.4819     0.1518 H            1    LIG   0.0000
  55 H           -3.8811    -5.2529     0.6151 H            1    LIG   0.0000
  56 H           -2.4749    -4.4445     0.8041 H            1    LIG   0.0000
  57 H           -3.6326    -3.8494    -0.1819 H            1    LIG   0.0000
  58 H           -4.3820    -6.3857    -1.5360 H            1    LIG   0.0000
  59 H           -4.1335    -4.9822    -2.3329 H            1    LIG   0.0000
  60 H           -3.3053    -6.3226    -2.7621 H            1    LIG   0.0000
  61 H           -3.5683    -1.2296    -2.0211 H            1    LIG   0.0000
  62 H           -2.9547     0.7937    -0.8987 H            1    LIG   0.0000
  63 H           -1.1782     2.1342     0.0652 H            1    LIG   0.0000
  64 H           -0.9128     1.2836     1.4336 H            1    LIG   0.0000
  65 H           -0.5043     4.0982     2.6238 H            1    LIG   0.0000
  66 H           -1.0695     3.0327     1.5229 H            1    LIG   0.0000
  67 H           -1.3708     7.3117    -1.2497 H            1    LIG   0.0000
  68 H           -3.6091     7.7084    -0.4914 H            1    LIG   0.0000
  69 H           -4.4935     6.3516     1.2815 H            1    LIG   0.0000
  70 H           -4.9499     3.5740     3.3955 H            1    LIG   0.0000
  71 H           -5.2442     5.0115     2.6787 H            1    LIG   0.0000
  72 H           -5.0318     3.6730     1.7676 H            1    LIG   0.0000
  73 H           -2.9493     3.3256     4.2269 H            1    LIG   0.0000
  74 H           -1.7338     3.2634     3.1381 H            1    LIG   0.0000
  75 H           -1.9462     4.6019     4.0492 H            1    LIG   0.0000
@<TRIPOS>BOND
   1        1        2 1
   2        2        3 1
   3        2        4 1
   4        4        5 1
   5        5        6 2
   6        6        7 1
   7        7        8 2
   8        8        9 1
   9        9       10 1
  10       10       11 1
  11       11       12 1
  12       12       13 ar
  13       13       14 ar
  14       14       15 1
  15       15       16 1
  16       16       17 1
  17       17       18 1
  18       17       19 1
  19       17       20 1
  20       14       21 ar
  21       21       22 ar
  22       22       23 ar
  23       23       12 ar
  24       23       24 1
  25       24        9 1
  26        8       25 1
  27       25        5 1
  28       25       26 1
  29       26       27 1
  30       27       28 ar
  31       28       29 ar
  32       29       30 ar
  33       30       31 ar
  34       31       32 ar
  35       32       27 ar
  36       32       33 1
  37       33       34 1
  38       33       35 1
  39        1       36 1
  40        1       37 1
  41        1       38 1
  42        2       39 1
  43        3       40 1
  44        3       41 1
  45        3       42 1
  46        4       43 1
  47        4       44 1
  48       10       45 1
  49       10       46 1
  50       11       47 1
  51       11       48 1
  52       13       49 1
  53       16       50 1
  54       16       51 1
  55       18       52 1
  56       18       53 1
  57       18       54 1
  58       19       55 1
  59       19       56 1
  60       19       57 1
  61       20       58 1
  62       20       59 1
  63       20       60 1
  64       21       61 1
  65       22       62 1
  66       24       63 1
  67       24       64 1
  68       26       65 1
  69       26       66 1
  70       29       67 1
  71       30       68 1
  72       31       69 1
  73       34       70 1
  74       34       71 1
  75       34       72 1
  76       35       73 1
  77       35       74 1
  78       35       75 1

@<TRIPOS>MOLECULE

  75   78
SMALL
USER_CHARGES
@<TRIPOS>ATOM
   1 C1           2.2917     8.6473     1.5346 C.3          1    LIG   0.0000
   2 C2           2.5156     7.2340     1.0218 C.3          1    LIG   0.0000
   3 C3           3.7637     6.6531     1.6661 C.3          1    LIG   0.0000
   4 C4           1.3150     6.3710     1.3742 C.3          1    LIG   0.0000
   5 C5           1.5389     4.9579     0.8616 C.2          1    LIG   0.0000
   6 N6           2.5908     4.5193     0.2136 N.2          1    LIG   0.0000
   7 N7           2.4357     3.2397    -0.0756 N.2          1    LIG   0.0000
   8 C8           1.2810     2.8321     0.3905 C.2          1    LIG   0.0000
   9 N9           0.7589     1.5402     0.2946 N.pl3        1    LIG   0.0000
  10 C10          1.6818     0.4219     0.0282 C.3          1    LIG   0.0000
  11 C11          1.1084    -0.9377     0.4032 C.3          1    LIG   0.0000
  12 C12         -0.2507    -1.0176    -0.2638 C.ar         1    LIG   0.0000
  13 C13         -0.6093    -2.2077    -0.8900 C.ar         1    LIG   0.0000
  14 C14         -1.8339    -2.2665    -1.5449 C.ar         1    LIG   0.0000
  15 O15         -2.1785    -3.4029    -2.1878 O.3          1    LIG   0.0000
  16 C16         -1.5617    -4.5882    -1.7072 C.3          1    LIG   0.0000
  17 C17         -0.5638    -5.0933    -2.7365 C.3          1    LIG   0.0000
  18 C18         -0.2757    -6.5642    -2.4836 C.3          1    LIG   0.0000
  19 C19         -1.1443    -4.9232    -4.1309 C.3          1    LIG   0.0000
  20 C20          0.7265    -4.2977    -2.6243 C.3          1    LIG   0.0000
  21 C21         -2.6893    -1.1700    -1.5479 C.ar         1    LIG   0.0000
  22 C22         -2.3352     0.0087    -0.8997 C.ar         1    LIG   0.0000
  23 C23         -1.1053     0.0781    -0.2528 C.ar         1    LIG   0.0000
  24 C24         -0.6920     1.3551     0.4609 C.3          1    LIG   0.0000
  25 N25          0.6900     3.9025     0.9888 N.pl3        1    LIG   0.0000
  26 C26         -0.6232     3.9189     1.6472 C.3          1    LIG   0.0000
  27 C27         -1.4844     5.0104     1.0329 C.ar         1    LIG   0.0000
  28 N28         -1.0954     5.6488    -0.0822 N.ar         1    LIG   0.0000
  29 C29         -1.8389     6.6158    -0.6411 C.ar         1    LIG   0.0000
  30 C30         -3.0527     6.9888    -0.0759 C.ar         1    LIG   0.0000
  31 C31         -3.4758     6.3419     1.0798 C.ar         1    LIG   0.0000
  32 C32         -2.6900     5.3429     1.6436 C.ar         1    LIG   0.0000
  33 N33         -3.1291     4.6998     2.8072 N.pl3        1    LIG   0.0000
  34 C34         -3.3535     3.2471     2.8040 C.3          1    LIG   0.0000
  35 C35         -3.3656     5.4774     4.0321 C.3          1    LIG   0.0000
  36 H            3.0816     9.2151     1.3027 H            1    LIG   0.0000
  37 H            1.4706     9.0295     1.1107 H            1    LIG   0.0000
  38 H            2.1756     8.6272     2.5276 H            1    LIG   0.0000
  39 H            2.6317     7.2542     0.0288 H            1    LIG   0.0000
  40 H            4.5536     7.2209     1.4343 H            1    LIG   0.0000
  41 H            3.6477     6.6330     2.6592 H            1    LIG   0.0000
  42 H            3.9111     5.7233     1.3288 H            1    LIG   0.0000
  43 H            1.1990     6.3509     2.3673 H            1    LIG   0.0000
  44 H            0.4939     6.7532     0.9503 H            1    LIG   0.0000
  45 H            2.5188     0.5692     0.5552 H            1    LIG   0.0000
  46 H            1.8992     0.4160    -0.9479 H            1    LIG   0.0000
  47 H            1.7026    -1.6694     0.0692 H            1    LIG   0.0000
  48 H            1.0130    -1.0126     1.3958 H            1    LIG   0.0000
  49 H           -0.0008    -3.0010    -0.8693 H            1    LIG   0.0000
  50 H           -2.2597    -5.2866    -1.5489 H            1    LIG   0.0000
  51 H           -1.0858    -4.3923    -0.8498 H            1    LIG   0.0000
  52 H            0.3808    -6.8965    -3.1608 H            1    LIG   0.0000
  53 H            0.1062    -6.6761    -1.5662 H            1    LIG   0.0000
  54 H           -1.1245    -7.0876    -2.5575 H            1    LIG   0.0000
  55 H           -0.4878    -5.2554    -4.8081 H            1    LIG   0.0000
  56 H           -1.9931    -5.4466    -4.2048 H            1    LIG   0.0000
  57 H           -1.3338    -3.9555    -4.2973 H            1    LIG   0.0000
  58 H            1.3830    -4.6300    -3.3015 H            1    LIG   0.0000
  59 H            0.5369    -3.3300    -2.7906 H            1    LIG   0.0000
  60 H            1.1084    -4.4096    -1.7069 H            1    LIG   0.0000
  61 H           -3.5683    -1.2296    -2.0211 H            1    LIG   0.0000
  62 H           -2.9547     0.7937    -0.8987 H            1    LIG   0.0000
  63 H           -1.1782     2.1342     0.0652 H            1    LIG   0.0000
  64 H           -0.9128     1.2836     1.4336 H            1    LIG   0.0000
  65 H           -0.5043     4.0982     2.6238 H            1    LIG   0.0000
  66 H           -1.0695     3.0327     1.5229 H            1    LIG   0.0000
  67 H           -1.5173     7.0716    -1.4710 H            1    LIG   0.0000
  68 H           -3.6099     7.7075    -0.4918 H            1    LIG   0.0000
  69 H           -4.3448     6.5949     1.5052 H            1    LIG   0.0000
  70 H           -3.6627     2.9555     3.7092 H            1    LIG   0.0000
  71 H           -4.0506     3.0190     2.1242 H            1    LIG   0.0000
  72 H           -2.5000     2.7784     2.5764 H            1    LIG   0.0000
  73 H           -3.6731     4.8657     4.7610 H            1    LIG   0.0000
  74 H           -2.5171     5.9274     4.3104 H            1    LIG   0.0000
  75 H           -4.0677     6.1680     3.8582 H            1    LIG   0.0000
@<TRIPOS>BOND
   1        1        2 1
   2        2        3 1
   3        2        4 1
   4        4        5 1
   5        5        6 2
   6        6        7 1
   7        7        8 2
   8        8        9 1
   9        9       10 1
  10       10       11 1
  11       11       12 1
  12       12       13 ar
  13       13       14 ar
  14       14       15 1
  15       15       16 1
  16       16       17 1
  17       17       18 1
  18       17       19 1
  19       17       20 1
  20       14       21 ar
  21       21       22 ar
  22       22       23 ar
  23       23       12 ar
  24       23       24 1
  25       24        9 1
  26        8       25 1
  27       25        5 1
  28       25       26 1
  29       26       27 1
  30       27       28 ar
  31       28       29 ar
  32       29       30 ar
  33       30       31 ar
  34       31       32 ar
  35       32       27 ar
  36       32       33 1
  37       33       34 1
  38       33       35 1
  39        1       36 1
  40        1       37 1
  41        1       38 1
  42        2       39 1
  43        3       40 1
  44        3       41 1
  45        3       42 1
  46        4       43 1
  47        4       44 1
  48       10       45 1
  49       10       46 1
  50       11       47 1
  51       11       48 1
  52       13       49 1
  53       16       50 1
  54       16       51 1
  55       18       52 1
  56       18       53 1
  57       18       54 1
  58       19       55 1
  59       19       56 1
  60       19       57 1
  61       20       58 1
  62       20       59 1
  63       20       60 1
  64       21       61 1
  65       22       62 1
  66       24       63 1
  67       24       64 1
  68       26       65 1
  69       26       66 1
  70       29       67 1
  71       30       68 1
  72       31       69 1
  73       34       70 1
  74       34       71 1
  75       34       72 1
  76       35       73 1
  77       35       74 1
  78       35       75 1

