@<TRIPOS>MOLECULE
*****
 75 78 0 0 0
SMALL
USER_CHARGES

@<TRIPOS>ATOM
      1 C1          2.2917    8.6473    1.5346 C.3     1  LIG1        0.0000
      2 C2          2.5156    7.2340    1.0218 C.3     1  LIG1        0.0000
      3 C3          3.7637    6.6531    1.6661 C.3     1  LIG1        0.0000
      4 C4          1.3150    6.3710    1.3742 C.3     1  LIG1        0.0000
      5 C5          1.5389    4.9579    0.8616 C.2     1  LIG1        0.0000
      6 N6          2.5908    4.5193    0.2136 N.2     1  LIG1        0.0000
      7 N7          2.4357    3.2397   -0.0756 N.2     1  LIG1        0.0000
      8 C8          1.2810    2.8321    0.3905 C.2     1  LIG1        0.0000
      9 N9          0.7589    1.5402    0.2946 N.pl3   1  LIG1        0.0000
     10 C10         1.6818    0.4219    0.0282 C.3     1  LIG1        0.0000
     11 C11         1.1084   -0.9377    0.4032 C.3     1  LIG1        0.0000
     12 C12        -0.2507   -1.0176   -0.2638 C.ar    1  LIG1        0.0000
     13 C13        -0.6093   -2.2077   -0.8900 C.ar    1  LIG1        0.0000
     14 C14        -1.8339   -2.2665   -1.5449 C.ar    1  LIG1        0.0000
     15 O15        -2.1785   -3.4029   -2.1878 O.3     1  LIG1        0.0000
     16 C16        -1.0956   -4.2176   -2.6121 C.3     1  LIG1        0.0000
     17 C17        -1.5679   -5.1568   -3.7099 C.3     1  LIG1        0.0000
     18 C18        -0.3688   -5.6605   -4.4965 C.3     1  LIG1        0.0000
     19 C19        -2.2979   -6.3362   -3.0883 C.3     1  LIG1        0.0000
     20 C20        -2.5095   -4.4127   -4.6428 C.3     1  LIG1        0.0000
     21 C21        -2.6893   -1.1700   -1.5479 C.ar    1  LIG1        0.0000
     22 C22        -2.3352    0.0087   -0.8997 C.ar    1  LIG1        0.0000
     23 C23        -1.1053    0.0781   -0.2528 C.ar    1  LIG1        0.0000
     24 C24        -0.6920    1.3551    0.4609 C.3     1  LIG1        0.0000
     25 N25         0.6900    3.9025    0.9888 N.pl3   1  LIG1        0.0000
     26 C26        -0.6232    3.9189    1.6472 C.3     1  LIG1        0.0000
     27 C27        -1.4844    5.0104    1.0329 C.ar    1  LIG1        0.0000
     28 N28        -1.0130    5.7836    0.0419 N.ar    1  LIG1        0.0000
     29 C29        -1.7549    6.7533   -0.5144 C.ar    1  LIG1        0.0000
     30 C30        -3.0531    6.9879   -0.0769 C.ar    1  LIG1        0.0000
     31 C31        -3.5627    6.1998    0.9491 C.ar    1  LIG1        0.0000
     32 C32        -2.7770    5.2006    1.5126 C.ar    1  LIG1        0.0000
     33 N33        -3.3035    4.4145    2.5447 N.pl3   1  LIG1        0.0000
     34 C34        -4.7478    4.1468    2.6011 C.3     1  LIG1        0.0000
     35 C35        -2.4119    3.8568    3.5718 C.3     1  LIG1        0.0000
     36 H           3.0816    9.2151    1.3027 H       1  LIG1        0.0000
     37 H           1.4706    9.0295    1.1107 H       1  LIG1        0.0000
     38 H           2.1756    8.6272    2.5276 H       1  LIG1        0.0000
     39 H           2.6317    7.2542    0.0288 H       1  LIG1        0.0000
     40 H           4.5536    7.2209    1.4343 H       1  LIG1        0.0000
     41 H           3.6477    6.6330    2.6592 H       1  LIG1        0.0000
     42 H           3.9111    5.7233    1.3288 H       1  LIG1        0.0000
     43 H           1.1990    6.3509    2.3673 H       1  LIG1        0.0000
     44 H           0.4939    6.7532    0.9503 H       1  LIG1        0.0000
     45 H           2.5188    0.5692    0.5552 H       1  LIG1        0.0000
     46 H           1.8992    0.4160   -0.9479 H       1  LIG1        0.0000
     47 H           1.7026   -1.6694    0.0692 H       1  LIG1        0.0000
     48 H           1.0130   -1.0126    1.3958 H       1  LIG1        0.0000
     49 H          -0.0008   -3.0010   -0.8693 H       1  LIG1        0.0000
     50 H          -0.7578   -4.7529   -1.8379 H       1  LIG1        0.0000
     51 H          -0.3600   -3.6381   -2.9629 H       1  LIG1        0.0000
     52 H          -0.6795   -6.2784   -5.2187 H       1  LIG1        0.0000
     53 H           0.1114   -4.8845   -4.9055 H       1  LIG1        0.0000
     54 H           0.2507   -6.1499   -3.8828 H       1  LIG1        0.0000
     55 H          -2.6086   -6.9541   -3.8106 H       1  LIG1        0.0000
     56 H          -1.6784   -6.8257   -2.4746 H       1  LIG1        0.0000
     57 H          -3.0868   -6.0048   -2.5708 H       1  LIG1        0.0000
     58 H          -2.8203   -5.0306   -5.3650 H       1  LIG1        0.0000
     59 H          -3.2985   -4.0814   -4.1253 H       1  LIG1        0.0000
     60 H          -2.0293   -3.6368   -5.0518 H       1  LIG1        0.0000
     61 H          -3.5683   -1.2296   -2.0211 H       1  LIG1        0.0000
     62 H          -2.9547    0.7937   -0.8987 H       1  LIG1        0.0000
     63 H          -1.1782    2.1342    0.0652 H       1  LIG1        0.0000
     64 H          -0.9128    1.2836    1.4336 H       1  LIG1        0.0000
     65 H          -0.5043    4.0982    2.6238 H       1  LIG1        0.0000
     66 H          -1.0695    3.0327    1.5229 H       1  LIG1        0.0000
     67 H          -1.3708    7.3117   -1.2497 H       1  LIG1        0.0000
     68 H          -3.6091    7.7084   -0.4914 H       1  LIG1        0.0000
     69 H          -4.4935    6.3516    1.2815 H       1  LIG1        0.0000
     70 H          -4.9499    3.5740    3.3955 H       1  LIG1        0.0000
     71 H          -5.2442    5.0115    2.6787 H       1  LIG1        0.0000
     72 H          -5.0318    3.6730    1.7676 H       1  LIG1        0.0000
     73 H          -2.9493    3.3256    4.2269 H       1  LIG1        0.0000
     74 H          -1.7338    3.2634    3.1381 H       1  LIG1        0.0000
     75 H          -1.9462    4.6019    4.0492 H       1  LIG1        0.0000
@<TRIPOS>BOND
     1     1     2    1
     2     2     3    1
     3     2     4    1
     4     4     5    1
     5     5     6    2
     6     6     7    1
     7     7     8    2
     8     8     9    1
     9     9    10    1
    10    10    11    1
    11    11    12    1
    12    12    13   ar
    13    13    14   ar
    14    14    15    1
    15    15    16    1
    16    16    17    1
    17    17    18    1
    18    17    19    1
    19    17    20    1
    20    14    21   ar
    21    21    22   ar
    22    22    23   ar
    23    23    12   ar
    24    23    24    1
    25    24     9    1
    26     8    25    1
    27    25     5    1
    28    25    26    1
    29    26    27    1
    30    27    28   ar
    31    28    29   ar
    32    29    30   ar
    33    30    31   ar
    34    31    32   ar
    35    32    27   ar
    36    32    33    1
    37    33    34    1
    38    33    35    1
    39     1    36    1
    40     1    37    1
    41     1    38    1
    42     2    39    1
    43     3    40    1
    44     3    41    1
    45     3    42    1
    46     4    43    1
    47     4    44    1
    48    10    45    1
    49    10    46    1
    50    11    47    1
    51    11    48    1
    52    13    49    1
    53    16    50    1
    54    16    51    1
    55    18    52    1
    56    18    53    1
    57    18    54    1
    58    19    55    1
    59    19    56    1
    60    19    57    1
    61    20    58    1
    62    20    59    1
    63    20    60    1
    64    21    61    1
    65    22    62    1
    66    24    63    1
    67    24    64    1
    68    26    65    1
    69    26    66    1
    70    29    67    1
    71    30    68    1
    72    31    69    1
    73    34    70    1
    74    34    71    1
    75    34    72    1
    76    35    73    1
    77    35    74    1
    78    35    75    1
