@<TRIPOS>MOLECULE
*****
 75 78 0 0 0
SMALL
USER_CHARGES

@<TRIPOS>ATOM
      1 C1          1.9917    8.7898    0.5921 C.3     1  LIG1        0.0000
      2 C2          2.3027    7.3208    0.3566 C.3     1  LIG1        0.0000
      3 C3          3.5875    6.9525    1.0805 C.3     1  LIG1        0.0000
      4 C4          1.1605    6.4697    0.8870 C.3     1  LIG1        0.0000
      5 C5          1.4715    5.0007    0.6516 C.2     1  LIG1        0.0000
      6 N6          2.6534    4.4778    0.4313 N.2     1  LIG1        0.0000
      7 N7          2.5406    3.1717    0.2688 N.2     1  LIG1        0.0000
      8 C8          1.2810    2.8321    0.3905 C.2     1  LIG1        0.0000
      9 N9          0.7589    1.5402    0.2946 N.pl3   1  LIG1        0.0000
     10 C10         1.6818    0.4219    0.0282 C.3     1  LIG1        0.0000
     11 C11         1.1084   -0.9377    0.4032 C.3     1  LIG1        0.0000
     12 C12        -0.2507   -1.0176   -0.2638 C.ar    1  LIG1        0.0000
     13 C13        -0.6093   -2.2077   -0.8900 C.ar    1  LIG1        0.0000
     14 C14        -1.8339   -2.2665   -1.5449 C.ar    1  LIG1        0.0000
     15 O15        -2.1785   -3.4029   -2.1878 O.3     1  LIG1        0.0000
     16 C16        -3.1887   -3.2640   -3.1759 C.3     1  LIG1        0.0000
     17 C17        -2.5781   -3.4538   -4.5549 C.3     1  LIG1        0.0000
     18 C18        -3.4907   -2.8370   -5.6024 C.3     1  LIG1        0.0000
     19 C19        -1.2186   -2.7758   -4.6048 C.3     1  LIG1        0.0000
     20 C20        -2.4145   -4.9385   -4.8365 C.3     1  LIG1        0.0000
     21 C21        -2.6893   -1.1700   -1.5479 C.ar    1  LIG1        0.0000
     22 C22        -2.3352    0.0087   -0.8997 C.ar    1  LIG1        0.0000
     23 C23        -1.1053    0.0781   -0.2528 C.ar    1  LIG1        0.0000
     24 C24        -0.6920    1.3551    0.4609 C.3     1  LIG1        0.0000
     25 N25         0.5798    3.9735    0.6322 N.pl3   1  LIG1        0.0000
     26 C26        -0.8719    4.0800    0.8316 C.3     1  LIG1        0.0000
     27 C27        -1.5522    4.3047   -0.5089 C.ar    1  LIG1        0.0000
     28 N28        -1.1413    3.6521   -1.6078 N.ar    1  LIG1        0.0000
     29 C29        -1.7264    3.8355   -2.8012 C.ar    1  LIG1        0.0000
     30 C30        -2.7924    4.7171   -2.9369 C.ar    1  LIG1        0.0000
     31 C31        -3.2350    5.4048   -1.8124 C.ar    1  LIG1        0.0000
     32 C32        -2.6143    5.2009   -0.5849 C.ar    1  LIG1        0.0000
     33 N33        -3.0711    5.9000    0.5389 N.pl3   1  LIG1        0.0000
     34 C34        -4.1257    5.3231    1.3849 C.3     1  LIG1        0.0000
     35 C35        -2.4959    7.2110    0.8728 C.3     1  LIG1        0.0000
     36 H           2.7431    9.3498    0.2431 H       1  LIG1        0.0000
     37 H           1.1464    9.0321    0.1158 H       1  LIG1        0.0000
     38 H           1.8809    8.9542    1.5722 H       1  LIG1        0.0000
     39 H           2.4135    7.1564   -0.6236 H       1  LIG1        0.0000
     40 H           4.3390    7.5125    0.7315 H       1  LIG1        0.0000
     41 H           3.4767    7.1168    2.0606 H       1  LIG1        0.0000
     42 H           3.7922    5.9860    0.9256 H       1  LIG1        0.0000
     43 H           1.0497    6.6340    1.8672 H       1  LIG1        0.0000
     44 H           0.3152    6.7119    0.4108 H       1  LIG1        0.0000
     45 H           2.5188    0.5692    0.5552 H       1  LIG1        0.0000
     46 H           1.8992    0.4160   -0.9479 H       1  LIG1        0.0000
     47 H           1.7026   -1.6694    0.0692 H       1  LIG1        0.0000
     48 H           1.0130   -1.0126    1.3958 H       1  LIG1        0.0000
     49 H          -0.0008   -3.0010   -0.8693 H       1  LIG1        0.0000
     50 H          -3.5931   -2.3515   -3.1132 H       1  LIG1        0.0000
     51 H          -3.8974   -3.9536   -3.0274 H       1  LIG1        0.0000
     52 H          -3.0890   -2.9619   -6.5096 H       1  LIG1        0.0000
     53 H          -4.3851   -3.2831   -5.5696 H       1  LIG1        0.0000
     54 H          -3.5984   -1.8602   -5.4171 H       1  LIG1        0.0000
     55 H          -0.8170   -2.9006   -5.5120 H       1  LIG1        0.0000
     56 H          -1.3263   -1.7990   -4.4195 H       1  LIG1        0.0000
     57 H          -0.6183   -3.1815   -3.9157 H       1  LIG1        0.0000
     58 H          -2.0128   -5.0634   -5.7438 H       1  LIG1        0.0000
     59 H          -1.8141   -5.3443   -4.1474 H       1  LIG1        0.0000
     60 H          -3.3088   -5.3846   -4.8037 H       1  LIG1        0.0000
     61 H          -3.5683   -1.2296   -2.0211 H       1  LIG1        0.0000
     62 H          -2.9547    0.7937   -0.8987 H       1  LIG1        0.0000
     63 H          -1.1782    2.1342    0.0652 H       1  LIG1        0.0000
     64 H          -0.9128    1.2836    1.4336 H       1  LIG1        0.0000
     65 H          -1.0694    4.8496    1.4388 H       1  LIG1        0.0000
     66 H          -1.2148    3.2350    1.2420 H       1  LIG1        0.0000
     67 H          -1.3930    3.3339   -3.5994 H       1  LIG1        0.0000
     68 H          -3.2318    4.8539   -3.8247 H       1  LIG1        0.0000
     69 H          -3.9991    6.0456   -1.8864 H       1  LIG1        0.0000
     70 H          -4.3295    5.9495    2.1373 H       1  LIG1        0.0000
     71 H          -4.9505    5.1796    0.8380 H       1  LIG1        0.0000
     72 H          -3.8146    4.4477    1.7549 H       1  LIG1        0.0000
     73 H          -2.9336    7.5664    1.6987 H       1  LIG1        0.0000
     74 H          -1.5135    7.1132    1.0319 H       1  LIG1        0.0000
     75 H          -2.6494    7.8451    0.1150 H       1  LIG1        0.0000
@<TRIPOS>BOND
     1     1     2    1
     2     2     3    1
     3     2     4    1
     4     4     5    1
     5     5     6    2
     6     6     7    1
     7     7     8    2
     8     8     9    1
     9     9    10    1
    10    10    11    1
    11    11    12    1
    12    12    13   ar
    13    13    14   ar
    14    14    15    1
    15    15    16    1
    16    16    17    1
    17    17    18    1
    18    17    19    1
    19    17    20    1
    20    14    21   ar
    21    21    22   ar
    22    22    23   ar
    23    23    12   ar
    24    23    24    1
    25    24     9    1
    26     8    25    1
    27    25     5    1
    28    25    26    1
    29    26    27    1
    30    27    28   ar
    31    28    29   ar
    32    29    30   ar
    33    30    31   ar
    34    31    32   ar
    35    32    27   ar
    36    32    33    1
    37    33    34    1
    38    33    35    1
    39     1    36    1
    40     1    37    1
    41     1    38    1
    42     2    39    1
    43     3    40    1
    44     3    41    1
    45     3    42    1
    46     4    43    1
    47     4    44    1
    48    10    45    1
    49    10    46    1
    50    11    47    1
    51    11    48    1
    52    13    49    1
    53    16    50    1
    54    16    51    1
    55    18    52    1
    56    18    53    1
    57    18    54    1
    58    19    55    1
    59    19    56    1
    60    19    57    1
    61    20    58    1
    62    20    59    1
    63    20    60    1
    64    21    61    1
    65    22    62    1
    66    24    63    1
    67    24    64    1
    68    26    65    1
    69    26    66    1
    70    29    67    1
    71    30    68    1
    72    31    69    1
    73    34    70    1
    74    34    71    1
    75    34    72    1
    76    35    73    1
    77    35    74    1
    78    35    75    1
