@<TRIPOS>MOLECULE
*****
 75 78 0 0 0
SMALL
USER_CHARGES

@<TRIPOS>ATOM
      1 C1          2.1370    8.7446    1.0659 C.3     1  LIG1        0.0000
      2 C2          2.4480    7.2756    0.8304 C.3     1  LIG1        0.0000
      3 C3          3.4028    6.7813    1.9049 C.3     1  LIG1        0.0000
      4 C4          1.1605    6.4697    0.8870 C.3     1  LIG1        0.0000
      5 C5          1.4715    5.0007    0.6516 C.2     1  LIG1        0.0000
      6 N6          2.6534    4.4778    0.4313 N.2     1  LIG1        0.0000
      7 N7          2.5406    3.1717    0.2688 N.2     1  LIG1        0.0000
      8 C8          1.2810    2.8321    0.3905 C.2     1  LIG1        0.0000
      9 N9          0.7589    1.5402    0.2946 N.pl3   1  LIG1        0.0000
     10 C10         1.6818    0.4219    0.0282 C.3     1  LIG1        0.0000
     11 C11         1.1084   -0.9377    0.4032 C.3     1  LIG1        0.0000
     12 C12        -0.2507   -1.0176   -0.2638 C.ar    1  LIG1        0.0000
     13 C13        -0.6093   -2.2077   -0.8900 C.ar    1  LIG1        0.0000
     14 C14        -1.8339   -2.2665   -1.5449 C.ar    1  LIG1        0.0000
     15 O15        -2.1785   -3.4029   -2.1878 O.3     1  LIG1        0.0000
     16 C16        -3.4442   -3.3816   -2.8310 C.3     1  LIG1        0.0000
     17 C17        -3.6917   -4.7204   -3.5068 C.3     1  LIG1        0.0000
     18 C18        -5.0466   -4.6977   -4.1954 C.3     1  LIG1        0.0000
     19 C19        -2.6040   -4.9766   -4.5372 C.3     1  LIG1        0.0000
     20 C20        -3.6719   -5.8259   -2.4637 C.3     1  LIG1        0.0000
     21 C21        -2.6893   -1.1700   -1.5479 C.ar    1  LIG1        0.0000
     22 C22        -2.3352    0.0087   -0.8997 C.ar    1  LIG1        0.0000
     23 C23        -1.1053    0.0781   -0.2528 C.ar    1  LIG1        0.0000
     24 C24        -0.6920    1.3551    0.4609 C.3     1  LIG1        0.0000
     25 N25         0.5798    3.9735    0.6322 N.pl3   1  LIG1        0.0000
     26 C26        -0.8719    4.0800    0.8316 C.3     1  LIG1        0.0000
     27 C27        -1.2984    3.1501    1.9556 C.ar    1  LIG1        0.0000
     28 N28        -0.3860    2.5433    2.7312 N.ar    1  LIG1        0.0000
     29 C29        -0.7396    1.7180    3.7283 C.ar    1  LIG1        0.0000
     30 C30        -2.0803    1.4651    3.9935 C.ar    1  LIG1        0.0000
     31 C31        -3.0434    2.0819    3.2027 C.ar    1  LIG1        0.0000
     32 C32        -2.6558    2.9332    2.1739 C.ar    1  LIG1        0.0000
     33 N33        -3.6366    3.5477    1.3861 N.pl3   1  LIG1        0.0000
     34 C34        -3.7219    5.0142    1.3299 C.3     1  LIG1        0.0000
     35 C35        -4.5811    2.7265    0.6151 C.3     1  LIG1        0.0000
     36 H           2.9840    9.2748    1.0287 H       1  LIG1        0.0000
     37 H           1.5088    9.0698    0.3590 H       1  LIG1        0.0000
     38 H           1.7135    8.8558    1.9650 H       1  LIG1        0.0000
     39 H           2.8716    7.1645   -0.0686 H       1  LIG1        0.0000
     40 H           4.2499    7.3115    1.8677 H       1  LIG1        0.0000
     41 H           2.9793    6.8924    2.8039 H       1  LIG1        0.0000
     42 H           3.6075    5.8148    1.7500 H       1  LIG1        0.0000
     43 H           0.7370    6.5808    1.7861 H       1  LIG1        0.0000
     44 H           0.5324    6.7949    0.1802 H       1  LIG1        0.0000
     45 H           2.5188    0.5692    0.5552 H       1  LIG1        0.0000
     46 H           1.8992    0.4160   -0.9479 H       1  LIG1        0.0000
     47 H           1.7026   -1.6694    0.0692 H       1  LIG1        0.0000
     48 H           1.0130   -1.0126    1.3958 H       1  LIG1        0.0000
     49 H          -0.0008   -3.0010   -0.8693 H       1  LIG1        0.0000
     50 H          -3.4572   -2.6544   -3.5172 H       1  LIG1        0.0000
     51 H          -4.1598   -3.2131   -2.1531 H       1  LIG1        0.0000
     52 H          -5.2094   -5.5785   -4.6400 H       1  LIG1        0.0000
     53 H          -5.7622   -4.5292   -3.5175 H       1  LIG1        0.0000
     54 H          -5.0596   -3.9704   -4.8816 H       1  LIG1        0.0000
     55 H          -2.7668   -5.8574   -4.9818 H       1  LIG1        0.0000
     56 H          -2.6170   -4.2493   -5.2234 H       1  LIG1        0.0000
     57 H          -1.7126   -4.9916   -4.0842 H       1  LIG1        0.0000
     58 H          -3.8347   -6.7067   -2.9084 H       1  LIG1        0.0000
     59 H          -2.7805   -5.8408   -2.0108 H       1  LIG1        0.0000
     60 H          -4.3875   -5.6574   -1.7859 H       1  LIG1        0.0000
     61 H          -3.5683   -1.2296   -2.0211 H       1  LIG1        0.0000
     62 H          -2.9547    0.7937   -0.8987 H       1  LIG1        0.0000
     63 H          -1.1782    2.1342    0.0652 H       1  LIG1        0.0000
     64 H          -0.9128    1.2836    1.4336 H       1  LIG1        0.0000
     65 H          -1.3439    3.8223   -0.0115 H       1  LIG1        0.0000
     66 H          -1.1073    5.0220    1.0708 H       1  LIG1        0.0000
     67 H          -0.0329    1.2814    4.2850 H       1  LIG1        0.0000
     68 H          -2.3467    0.8523    4.7374 H       1  LIG1        0.0000
     69 H          -4.0142    1.9134    3.3738 H       1  LIG1        0.0000
     70 H          -4.4723    5.2815    0.7254 H       1  LIG1        0.0000
     71 H          -3.8892    5.3737    2.2479 H       1  LIG1        0.0000
     72 H          -2.8624    5.3849    0.9782 H       1  LIG1        0.0000
     73 H          -5.2082    3.3222    0.1132 H       1  LIG1        0.0000
     74 H          -4.0754    2.1549   -0.0311 H       1  LIG1        0.0000
     75 H          -5.1022    2.1437    1.2387 H       1  LIG1        0.0000
@<TRIPOS>BOND
     1     1     2    1
     2     2     3    1
     3     2     4    1
     4     4     5    1
     5     5     6    2
     6     6     7    1
     7     7     8    2
     8     8     9    1
     9     9    10    1
    10    10    11    1
    11    11    12    1
    12    12    13   ar
    13    13    14   ar
    14    14    15    1
    15    15    16    1
    16    16    17    1
    17    17    18    1
    18    17    19    1
    19    17    20    1
    20    14    21   ar
    21    21    22   ar
    22    22    23   ar
    23    23    12   ar
    24    23    24    1
    25    24     9    1
    26     8    25    1
    27    25     5    1
    28    25    26    1
    29    26    27    1
    30    27    28   ar
    31    28    29   ar
    32    29    30   ar
    33    30    31   ar
    34    31    32   ar
    35    32    27   ar
    36    32    33    1
    37    33    34    1
    38    33    35    1
    39     1    36    1
    40     1    37    1
    41     1    38    1
    42     2    39    1
    43     3    40    1
    44     3    41    1
    45     3    42    1
    46     4    43    1
    47     4    44    1
    48    10    45    1
    49    10    46    1
    50    11    47    1
    51    11    48    1
    52    13    49    1
    53    16    50    1
    54    16    51    1
    55    18    52    1
    56    18    53    1
    57    18    54    1
    58    19    55    1
    59    19    56    1
    60    19    57    1
    61    20    58    1
    62    20    59    1
    63    20    60    1
    64    21    61    1
    65    22    62    1
    66    24    63    1
    67    24    64    1
    68    26    65    1
    69    26    66    1
    70    29    67    1
    71    30    68    1
    72    31    69    1
    73    34    70    1
    74    34    71    1
    75    34    72    1
    76    35    73    1
    77    35    74    1
    78    35    75    1
