@<TRIPOS>MOLECULE

  34   35
SMALL
USER_CHARGES
@<TRIPOS>ATOM
   1 C1           1.6729     0.7222     5.2906 C.2          1    LIG   0.0000
   2 C2           0.6818     1.7291     5.2466 C.2          1    LIG   0.0000
   3 N3           0.6893     2.2073     4.0239 N.2          1    LIG   0.0000
   4 N4           1.5947     1.5947     3.2919 N.pl3        1    LIG   0.0000
   5 C5           1.8776     1.8776     1.8776 C.3          1    LIG   0.0000
   6 C6           1.0000     1.0000     1.0000 C.3          1    LIG   0.0000
   7 C7           1.2926     1.2926    -0.4628 C.3          1    LIG   0.0000
   8 C8           0.4090     0.4090    -1.3278 C.3          1    LIG   0.0000
   9 C9           0.8781     0.3670    -2.7779 C.3          1    LIG   0.0000
  10 C10          0.2215     1.3990    -3.6894 C.3          1    LIG   0.0000
  11 C11          0.1218     2.7842    -3.0675 C.3          1    LIG   0.0000
  12 C12          1.3075     3.1668    -2.1884 C.3          1    LIG   0.0000
  13 C13          1.1059     2.7798    -0.7297 C.3          1    LIG   0.0000
  14 C14          2.2308     0.6576     4.0486 C.2          1    LIG   0.0000
  15 H            1.9182     0.1632     6.0826 H            1    LIG   0.0000
  16 H            0.0909     2.0201     5.9990 H            1    LIG   0.0000
  17 H            2.8398     1.6851     1.6851 H            1    LIG   0.0000
  18 H            1.6851     2.8398     1.6851 H            1    LIG   0.0000
  19 H            1.1925     0.0377     1.1925 H            1    LIG   0.0000
  20 H            0.0377     1.1925     1.1925 H            1    LIG   0.0000
  21 H            2.2472     1.0577    -0.6456 H            1    LIG   0.0000
  22 H           -0.5253     0.7645    -1.3019 H            1    LIG   0.0000
  23 H            0.4226    -0.5200    -0.9581 H            1    LIG   0.0000
  24 H            0.6798    -0.5425    -3.1433 H            1    LIG   0.0000
  25 H            1.8657     0.5233    -2.7907 H            1    LIG   0.0000
  26 H           -0.7016     1.0842    -3.9102 H            1    LIG   0.0000
  27 H            0.7601     1.4674    -4.5292 H            1    LIG   0.0000
  28 H            0.0511     3.4544    -3.8063 H            1    LIG   0.0000
  29 H           -0.7061     2.8168    -2.5076 H            1    LIG   0.0000
  30 H            2.1239     2.7030    -2.5326 H            1    LIG   0.0000
  31 H            1.4391     4.1566    -2.2416 H            1    LIG   0.0000
  32 H            1.7655     3.2860    -0.1741 H            1    LIG   0.0000
  33 H            0.1774     3.0354    -0.4601 H            1    LIG   0.0000
  34 H            2.9623     0.0438     3.7517 H            1    LIG   0.0000
@<TRIPOS>BOND
   1        1        2 1
   2        2        3 2
   3        3        4 1
   4        4        5 1
   5        5        6 1
   6        6        7 1
   7        7        8 1
   8        8        9 1
   9        9       10 1
  10       10       11 1
  11       11       12 1
  12       12       13 1
  13       13        7 1
  14        4       14 1
  15       14        1 2
  16        1       15 1
  17        2       16 1
  18        5       17 1
  19        5       18 1
  20        6       19 1
  21        6       20 1
  22        7       21 1
  23        8       22 1
  24        8       23 1
  25        9       24 1
  26        9       25 1
  27       10       26 1
  28       10       27 1
  29       11       28 1
  30       11       29 1
  31       12       30 1
  32       12       31 1
  33       13       32 1
  34       13       33 1
  35       14       34 1

@<TRIPOS>MOLECULE

  34   35
SMALL
USER_CHARGES
@<TRIPOS>ATOM
   1 C1           1.6729     0.7222     5.2906 C.2          1    LIG   0.0000
   2 C2           0.6818     1.7291     5.2466 C.2          1    LIG   0.0000
   3 N3           0.6893     2.2073     4.0239 N.2          1    LIG   0.0000
   4 N4           1.5947     1.5947     3.2919 N.pl3        1    LIG   0.0000
   5 C5           1.8776     1.8776     1.8776 C.3          1    LIG   0.0000
   6 C6           1.0000     1.0000     1.0000 C.3          1    LIG   0.0000
   7 C7           1.2925     1.2925    -0.4624 C.3          1    LIG   0.0000
   8 C8           0.4003     0.4003    -1.3102 C.3          1    LIG   0.0000
   9 C9           0.6566     0.5646    -2.8029 C.3          1    LIG   0.0000
  10 C10          1.9374    -0.1047    -3.2898 C.3          1    LIG   0.0000
  11 C11          3.1716     0.7862    -3.2429 C.3          1    LIG   0.0000
  12 C12          3.2243     1.7188    -2.0395 C.3          1    LIG   0.0000
  13 C13          2.7782     1.0804    -0.7282 C.3          1    LIG   0.0000
  14 C14          2.2308     0.6576     4.0486 C.2          1    LIG   0.0000
  15 H            1.9182     0.1632     6.0826 H            1    LIG   0.0000
  16 H            0.0909     2.0201     5.9990 H            1    LIG   0.0000
  17 H            2.8398     1.6851     1.6851 H            1    LIG   0.0000
  18 H            1.6851     2.8398     1.6851 H            1    LIG   0.0000
  19 H            1.1925     0.0377     1.1925 H            1    LIG   0.0000
  20 H            0.0377     1.1925     1.1925 H            1    LIG   0.0000
  21 H            1.0649     2.2478    -0.6512 H            1    LIG   0.0000
  22 H           -0.5545     0.6304    -1.1219 H            1    LIG   0.0000
  23 H            0.5692    -0.5529    -1.0592 H            1    LIG   0.0000
  24 H            0.7157     1.5420    -3.0061 H            1    LIG   0.0000
  25 H           -0.1146     0.1669    -3.3000 H            1    LIG   0.0000
  26 H            1.7977    -0.3956    -4.2363 H            1    LIG   0.0000
  27 H            2.1086    -0.9061    -2.7166 H            1    LIG   0.0000
  28 H            3.9811     0.1995    -3.2205 H            1    LIG   0.0000
  29 H            3.1872     1.3441    -4.0727 H            1    LIG   0.0000
  30 H            4.1669     2.0341    -1.9292 H            1    LIG   0.0000
  31 H            2.6304     2.5018    -2.2243 H            1    LIG   0.0000
  32 H            2.9612     0.0981    -0.7692 H            1    LIG   0.0000
  33 H            3.3008     1.4857     0.0219 H            1    LIG   0.0000
  34 H            2.9623     0.0438     3.7517 H            1    LIG   0.0000
@<TRIPOS>BOND
   1        1        2 1
   2        2        3 2
   3        3        4 1
   4        4        5 1
   5        5        6 1
   6        6        7 1
   7        7        8 1
   8        8        9 1
   9        9       10 1
  10       10       11 1
  11       11       12 1
  12       12       13 1
  13       13        7 1
  14        4       14 1
  15       14        1 2
  16        1       15 1
  17        2       16 1
  18        5       17 1
  19        5       18 1
  20        6       19 1
  21        6       20 1
  22        7       21 1
  23        8       22 1
  24        8       23 1
  25        9       24 1
  26        9       25 1
  27       10       26 1
  28       10       27 1
  29       11       28 1
  30       11       29 1
  31       12       30 1
  32       12       31 1
  33       13       32 1
  34       13       33 1
  35       14       34 1

@<TRIPOS>MOLECULE

  34   35
SMALL
USER_CHARGES
@<TRIPOS>ATOM
   1 C1           0.7174     1.6681     5.2887 C.2          1    LIG   0.0000
   2 C2           1.7260     0.6787     5.2453 C.2          1    LIG   0.0000
   3 N3           2.2073     0.6893     4.0239 N.2          1    LIG   0.0000
   4 N4           1.5947     1.5947     3.2919 N.pl3        1    LIG   0.0000
   5 C5           1.8776     1.8776     1.8776 C.3          1    LIG   0.0000
   6 C6           1.0000     1.0000     1.0000 C.3          1    LIG   0.0000
   7 C7           1.2926     1.2926    -0.4628 C.3          1    LIG   0.0000
   8 C8           0.4090     0.4090    -1.3278 C.3          1    LIG   0.0000
   9 C9           0.8781     0.3670    -2.7779 C.3          1    LIG   0.0000
  10 C10          0.2215     1.3990    -3.6894 C.3          1    LIG   0.0000
  11 C11          0.1218     2.7842    -3.0675 C.3          1    LIG   0.0000
  12 C12          1.3075     3.1668    -2.1884 C.3          1    LIG   0.0000
  13 C13          1.1059     2.7798    -0.7297 C.3          1    LIG   0.0000
  14 C14          0.6560     2.2293     4.0479 C.2          1    LIG   0.0000
  15 H            0.1555     1.9105     6.0796 H            1    LIG   0.0000
  16 H            2.0160     0.0868     5.9974 H            1    LIG   0.0000
  17 H            2.8398     1.6851     1.6851 H            1    LIG   0.0000
  18 H            1.6851     2.8398     1.6851 H            1    LIG   0.0000
  19 H            1.1925     0.0377     1.1925 H            1    LIG   0.0000
  20 H            0.0377     1.1925     1.1925 H            1    LIG   0.0000
  21 H            2.2472     1.0577    -0.6456 H            1    LIG   0.0000
  22 H           -0.5253     0.7645    -1.3019 H            1    LIG   0.0000
  23 H            0.4226    -0.5200    -0.9581 H            1    LIG   0.0000
  24 H            0.6798    -0.5425    -3.1433 H            1    LIG   0.0000
  25 H            1.8657     0.5233    -2.7907 H            1    LIG   0.0000
  26 H           -0.7016     1.0842    -3.9102 H            1    LIG   0.0000
  27 H            0.7601     1.4674    -4.5292 H            1    LIG   0.0000
  28 H            0.0511     3.4544    -3.8063 H            1    LIG   0.0000
  29 H           -0.7061     2.8168    -2.5076 H            1    LIG   0.0000
  30 H            2.1239     2.7030    -2.5326 H            1    LIG   0.0000
  31 H            1.4391     4.1566    -2.2416 H            1    LIG   0.0000
  32 H            1.7655     3.2860    -0.1741 H            1    LIG   0.0000
  33 H            0.1774     3.0354    -0.4601 H            1    LIG   0.0000
  34 H            0.0432     2.9617     3.7514 H            1    LIG   0.0000
@<TRIPOS>BOND
   1        1        2 1
   2        2        3 2
   3        3        4 1
   4        4        5 1
   5        5        6 1
   6        6        7 1
   7        7        8 1
   8        8        9 1
   9        9       10 1
  10       10       11 1
  11       11       12 1
  12       12       13 1
  13       13        7 1
  14        4       14 1
  15       14        1 2
  16        1       15 1
  17        2       16 1
  18        5       17 1
  19        5       18 1
  20        6       19 1
  21        6       20 1
  22        7       21 1
  23        8       22 1
  24        8       23 1
  25        9       24 1
  26        9       25 1
  27       10       26 1
  28       10       27 1
  29       11       28 1
  30       11       29 1
  31       12       30 1
  32       12       31 1
  33       13       32 1
  34       13       33 1
  35       14       34 1

@<TRIPOS>MOLECULE

  34   35
SMALL
USER_CHARGES
@<TRIPOS>ATOM
   1 C1           0.7174     1.6681     5.2887 C.2          1    LIG   0.0000
   2 C2           1.7260     0.6787     5.2453 C.2          1    LIG   0.0000
   3 N3           2.2073     0.6893     4.0239 N.2          1    LIG   0.0000
   4 N4           1.5947     1.5947     3.2919 N.pl3        1    LIG   0.0000
   5 C5           1.8776     1.8776     1.8776 C.3          1    LIG   0.0000
   6 C6           1.0000     1.0000     1.0000 C.3          1    LIG   0.0000
   7 C7           1.2925     1.2925    -0.4624 C.3          1    LIG   0.0000
   8 C8           0.4003     0.4003    -1.3102 C.3          1    LIG   0.0000
   9 C9           0.6566     0.5646    -2.8029 C.3          1    LIG   0.0000
  10 C10          1.9374    -0.1047    -3.2898 C.3          1    LIG   0.0000
  11 C11          3.1716     0.7862    -3.2429 C.3          1    LIG   0.0000
  12 C12          3.2243     1.7188    -2.0395 C.3          1    LIG   0.0000
  13 C13          2.7782     1.0804    -0.7282 C.3          1    LIG   0.0000
  14 C14          0.6560     2.2293     4.0479 C.2          1    LIG   0.0000
  15 H            0.1555     1.9105     6.0796 H            1    LIG   0.0000
  16 H            2.0160     0.0868     5.9974 H            1    LIG   0.0000
  17 H            2.8398     1.6851     1.6851 H            1    LIG   0.0000
  18 H            1.6851     2.8398     1.6851 H            1    LIG   0.0000
  19 H            1.1925     0.0377     1.1925 H            1    LIG   0.0000
  20 H            0.0377     1.1925     1.1925 H            1    LIG   0.0000
  21 H            1.0649     2.2478    -0.6512 H            1    LIG   0.0000
  22 H           -0.5545     0.6304    -1.1219 H            1    LIG   0.0000
  23 H            0.5692    -0.5529    -1.0592 H            1    LIG   0.0000
  24 H            0.7157     1.5420    -3.0061 H            1    LIG   0.0000
  25 H           -0.1146     0.1669    -3.3000 H            1    LIG   0.0000
  26 H            1.7977    -0.3956    -4.2363 H            1    LIG   0.0000
  27 H            2.1086    -0.9061    -2.7166 H            1    LIG   0.0000
  28 H            3.9811     0.1995    -3.2205 H            1    LIG   0.0000
  29 H            3.1872     1.3441    -4.0727 H            1    LIG   0.0000
  30 H            4.1669     2.0341    -1.9292 H            1    LIG   0.0000
  31 H            2.6304     2.5018    -2.2243 H            1    LIG   0.0000
  32 H            2.9612     0.0981    -0.7692 H            1    LIG   0.0000
  33 H            3.3008     1.4857     0.0219 H            1    LIG   0.0000
  34 H            0.0432     2.9617     3.7514 H            1    LIG   0.0000
@<TRIPOS>BOND
   1        1        2 1
   2        2        3 2
   3        3        4 1
   4        4        5 1
   5        5        6 1
   6        6        7 1
   7        7        8 1
   8        8        9 1
   9        9       10 1
  10       10       11 1
  11       11       12 1
  12       12       13 1
  13       13        7 1
  14        4       14 1
  15       14        1 2
  16        1       15 1
  17        2       16 1
  18        5       17 1
  19        5       18 1
  20        6       19 1
  21        6       20 1
  22        7       21 1
  23        8       22 1
  24        8       23 1
  25        9       24 1
  26        9       25 1
  27       10       26 1
  28       10       27 1
  29       11       28 1
  30       11       29 1
  31       12       30 1
  32       12       31 1
  33       13       32 1
  34       13       33 1
  35       14       34 1

@<TRIPOS>MOLECULE

  34   35
SMALL
USER_CHARGES
@<TRIPOS>ATOM
   1 C1           3.1921     0.4242     4.9082 C.2          1    LIG   0.0000
   2 C2           1.8532    -0.0287     4.9053 C.2          1    LIG   0.0000
   3 N3           1.2959     0.4601     3.8218 N.2          1    LIG   0.0000
   4 N4           2.1604     1.1806     3.1403 N.pl3        1    LIG   0.0000
   5 C5           1.8776     1.8776     1.8776 C.3          1    LIG   0.0000
   6 C6           1.0000     1.0000     1.0000 C.3          1    LIG   0.0000
   7 C7           1.2927     1.2927    -0.4633 C.3          1    LIG   0.0000
   8 C8           0.0439     0.9158    -1.2575 C.3          1    LIG   0.0000
   9 C9          -0.1705     1.7631    -2.5051 C.3          1    LIG   0.0000
  10 C10          1.1265     2.1521    -3.2053 C.3          1    LIG   0.0000
  11 C11          2.1654     1.0427    -3.2807 C.3          1    LIG   0.0000
  12 C12          3.1414     1.0661    -2.1106 C.3          1    LIG   0.0000
  13 C13          2.5396     0.5048    -0.8301 C.3          1    LIG   0.0000
  14 C14          3.3591     1.1816     3.7873 C.2          1    LIG   0.0000
  15 H            3.8855     0.2265     5.6012 H            1    LIG   0.0000
  16 H            1.4161    -0.6078     5.5936 H            1    LIG   0.0000
  17 H            2.7367     2.0700     1.4034 H            1    LIG   0.0000
  18 H            1.4034     2.7367     2.0700 H            1    LIG   0.0000
  19 H            1.1925     0.0377     1.1925 H            1    LIG   0.0000
  20 H            0.0377     1.1925     1.1925 H            1    LIG   0.0000
  21 H            1.4738     2.2697    -0.5755 H            1    LIG   0.0000
  22 H           -0.7526     1.0237    -0.6625 H            1    LIG   0.0000
  23 H            0.1244    -0.0411    -1.5364 H            1    LIG   0.0000
  24 H           -0.6510     2.5994    -2.2412 H            1    LIG   0.0000
  25 H           -0.7338     1.2437    -3.1477 H            1    LIG   0.0000
  26 H            1.5287     2.9224    -2.7105 H            1    LIG   0.0000
  27 H            0.9043     2.4347    -4.1384 H            1    LIG   0.0000
  28 H            1.6922     0.1617    -3.2843 H            1    LIG   0.0000
  29 H            2.6826     1.1467    -4.1302 H            1    LIG   0.0000
  30 H            3.9437     0.5205    -2.3526 H            1    LIG   0.0000
  31 H            3.4194     2.0123    -1.9451 H            1    LIG   0.0000
  32 H            2.2973    -0.4554    -0.9695 H            1    LIG   0.0000
  33 H            3.2078     0.5759    -0.0895 H            1    LIG   0.0000
  34 H            4.1959     1.6460     3.4973 H            1    LIG   0.0000
@<TRIPOS>BOND
   1        1        2 1
   2        2        3 2
   3        3        4 1
   4        4        5 1
   5        5        6 1
   6        6        7 1
   7        7        8 1
   8        8        9 1
   9        9       10 1
  10       10       11 1
  11       11       12 1
  12       12       13 1
  13       13        7 1
  14        4       14 1
  15       14        1 2
  16        1       15 1
  17        2       16 1
  18        5       17 1
  19        5       18 1
  20        6       19 1
  21        6       20 1
  22        7       21 1
  23        8       22 1
  24        8       23 1
  25        9       24 1
  26        9       25 1
  27       10       26 1
  28       10       27 1
  29       11       28 1
  30       11       29 1
  31       12       30 1
  32       12       31 1
  33       13       32 1
  34       13       33 1
  35       14       34 1

@<TRIPOS>MOLECULE

  34   35
SMALL
USER_CHARGES
@<TRIPOS>ATOM
   1 C1           2.6359    -0.3814     4.5882 C.2          1    LIG   0.0000
   2 C2           2.4736     0.8548     5.2541 C.2          1    LIG   0.0000
   3 N3           2.1911     1.7428     4.3293 N.2          1    LIG   0.0000
   4 N4           2.1604     1.1806     3.1403 N.pl3        1    LIG   0.0000
   5 C5           1.8776     1.8776     1.8776 C.3          1    LIG   0.0000
   6 C6           1.0000     1.0000     1.0000 C.3          1    LIG   0.0000
   7 C7           1.2929     1.2929    -0.4643 C.3          1    LIG   0.0000
   8 C8           0.3910     0.3910    -1.2979 C.3          1    LIG   0.0000
   9 C9           0.2511     0.8545    -2.7423 C.3          1    LIG   0.0000
  10 C10          1.5359     1.3914    -3.3569 C.3          1    LIG   0.0000
  11 C11          1.6463     2.8971    -3.1952 C.3          1    LIG   0.0000
  12 C12          2.0276     3.3191    -1.7838 C.3          1    LIG   0.0000
  13 C13          1.0938     2.7812    -0.7027 C.3          1    LIG   0.0000
  14 C14          2.4328    -0.1486     3.2605 C.2          1    LIG   0.0000
  15 H            2.8576    -1.2601     5.0109 H            1    LIG   0.0000
  16 H            2.5575     1.0205     6.2367 H            1    LIG   0.0000
  17 H            2.7367     2.0700     1.4034 H            1    LIG   0.0000
  18 H            1.4034     2.7367     2.0700 H            1    LIG   0.0000
  19 H            1.1925     0.0377     1.1925 H            1    LIG   0.0000
  20 H            0.0377     1.1925     1.1925 H            1    LIG   0.0000
  21 H            2.2466     1.0604    -0.6552 H            1    LIG   0.0000
  22 H           -0.5172     0.3751    -0.8796 H            1    LIG   0.0000
  23 H            0.7751    -0.5323    -1.2959 H            1    LIG   0.0000
  24 H           -0.4371     1.5794    -2.7730 H            1    LIG   0.0000
  25 H           -0.0578     0.0781    -3.2916 H            1    LIG   0.0000
  26 H            1.5475     1.1680    -4.3315 H            1    LIG   0.0000
  27 H            2.3167     0.9586    -2.9063 H            1    LIG   0.0000
  28 H            2.3433     3.2350    -3.8277 H            1    LIG   0.0000
  29 H            0.7630     3.3073    -3.4225 H            1    LIG   0.0000
  30 H            2.9518     2.9872    -1.5950 H            1    LIG   0.0000
  31 H            2.0168     4.3181    -1.7403 H            1    LIG   0.0000
  32 H            1.2722     3.2712     0.1506 H            1    LIG   0.0000
  33 H            0.1478     2.9387    -0.9860 H            1    LIG   0.0000
  34 H            2.4754    -0.8206     2.5212 H            1    LIG   0.0000
@<TRIPOS>BOND
   1        1        2 1
   2        2        3 2
   3        3        4 1
   4        4        5 1
   5        5        6 1
   6        6        7 1
   7        7        8 1
   8        8        9 1
   9        9       10 1
  10       10       11 1
  11       11       12 1
  12       12       13 1
  13       13        7 1
  14        4       14 1
  15       14        1 2
  16        1       15 1
  17        2       16 1
  18        5       17 1
  19        5       18 1
  20        6       19 1
  21        6       20 1
  22        7       21 1
  23        8       22 1
  24        8       23 1
  25        9       24 1
  26        9       25 1
  27       10       26 1
  28       10       27 1
  29       11       28 1
  30       11       29 1
  31       12       30 1
  32       12       31 1
  33       13       32 1
  34       13       33 1
  35       14       34 1

@<TRIPOS>MOLECULE

  34   35
SMALL
USER_CHARGES
@<TRIPOS>ATOM
   1 C1           1.9278    -0.0321     4.9396 C.2          1    LIG   0.0000
   2 C2           3.2493     0.4639     4.8645 C.2          1    LIG   0.0000
   3 N3           3.3177     1.1795     3.7660 N.2          1    LIG   0.0000
   4 N4           2.1604     1.1806     3.1403 N.pl3        1    LIG   0.0000
   5 C5           1.8776     1.8776     1.8776 C.3          1    LIG   0.0000
   6 C6           1.0000     1.0000     1.0000 C.3          1    LIG   0.0000
   7 C7           1.2927     1.2927    -0.4633 C.3          1    LIG   0.0000
   8 C8           0.0439     0.9158    -1.2575 C.3          1    LIG   0.0000
   9 C9          -0.1705     1.7631    -2.5051 C.3          1    LIG   0.0000
  10 C10          1.1265     2.1521    -3.2053 C.3          1    LIG   0.0000
  11 C11          2.1654     1.0427    -3.2807 C.3          1    LIG   0.0000
  12 C12          3.1414     1.0661    -2.1106 C.3          1    LIG   0.0000
  13 C13          2.5396     0.5048    -0.8301 C.3          1    LIG   0.0000
  14 C14          1.2643     0.4341     3.8439 C.2          1    LIG   0.0000
  15 H            1.5511    -0.6145     5.6599 H            1    LIG   0.0000
  16 H            3.9873     0.3015     5.5195 H            1    LIG   0.0000
  17 H            2.7367     2.0700     1.4034 H            1    LIG   0.0000
  18 H            1.4034     2.7367     2.0700 H            1    LIG   0.0000
  19 H            1.1925     0.0377     1.1925 H            1    LIG   0.0000
  20 H            0.0377     1.1925     1.1925 H            1    LIG   0.0000
  21 H            1.4738     2.2697    -0.5755 H            1    LIG   0.0000
  22 H           -0.7526     1.0237    -0.6625 H            1    LIG   0.0000
  23 H            0.1244    -0.0411    -1.5364 H            1    LIG   0.0000
  24 H           -0.6510     2.5994    -2.2412 H            1    LIG   0.0000
  25 H           -0.7338     1.2437    -3.1477 H            1    LIG   0.0000
  26 H            1.5287     2.9224    -2.7105 H            1    LIG   0.0000
  27 H            0.9043     2.4347    -4.1384 H            1    LIG   0.0000
  28 H            1.6922     0.1617    -3.2843 H            1    LIG   0.0000
  29 H            2.6826     1.1467    -4.1302 H            1    LIG   0.0000
  30 H            3.9437     0.5205    -2.3526 H            1    LIG   0.0000
  31 H            3.4194     2.0123    -1.9451 H            1    LIG   0.0000
  32 H            2.2973    -0.4554    -0.9695 H            1    LIG   0.0000
  33 H            3.2078     0.5759    -0.0895 H            1    LIG   0.0000
  34 H            0.3089     0.2621     3.6041 H            1    LIG   0.0000
@<TRIPOS>BOND
   1        1        2 1
   2        2        3 2
   3        3        4 1
   4        4        5 1
   5        5        6 1
   6        6        7 1
   7        7        8 1
   8        8        9 1
   9        9       10 1
  10       10       11 1
  11       11       12 1
  12       12       13 1
  13       13        7 1
  14        4       14 1
  15       14        1 2
  16        1       15 1
  17        2       16 1
  18        5       17 1
  19        5       18 1
  20        6       19 1
  21        6       20 1
  22        7       21 1
  23        8       22 1
  24        8       23 1
  25        9       24 1
  26        9       25 1
  27       10       26 1
  28       10       27 1
  29       11       28 1
  30       11       29 1
  31       12       30 1
  32       12       31 1
  33       13       32 1
  34       13       33 1
  35       14       34 1

@<TRIPOS>MOLECULE

  34   35
SMALL
USER_CHARGES
@<TRIPOS>ATOM
   1 C1           2.4841     0.7735     5.2597 C.2          1    LIG   0.0000
   2 C2           2.6289    -0.4197     4.5158 C.2          1    LIG   0.0000
   3 N3           2.4226    -0.1032     3.2584 N.2          1    LIG   0.0000
   4 N4           2.1604     1.1806     3.1403 N.pl3        1    LIG   0.0000
   5 C5           1.8776     1.8776     1.8776 C.3          1    LIG   0.0000
   6 C6           1.0000     1.0000     1.0000 C.3          1    LIG   0.0000
   7 C7           1.2929     1.2929    -0.4643 C.3          1    LIG   0.0000
   8 C8           0.3910     0.3910    -1.2979 C.3          1    LIG   0.0000
   9 C9           0.2511     0.8545    -2.7423 C.3          1    LIG   0.0000
  10 C10          1.5359     1.3914    -3.3569 C.3          1    LIG   0.0000
  11 C11          1.6463     2.8971    -3.1952 C.3          1    LIG   0.0000
  12 C12          2.0276     3.3191    -1.7838 C.3          1    LIG   0.0000
  13 C13          1.0938     2.7812    -0.7027 C.3          1    LIG   0.0000
  14 C14          2.1906     1.7642     4.3706 C.2          1    LIG   0.0000
  15 H            2.5789     0.8721     6.2502 H            1    LIG   0.0000
  16 H            2.8459    -1.3268     4.8764 H            1    LIG   0.0000
  17 H            2.7367     2.0700     1.4034 H            1    LIG   0.0000
  18 H            1.4034     2.7367     2.0700 H            1    LIG   0.0000
  19 H            1.1925     0.0377     1.1925 H            1    LIG   0.0000
  20 H            0.0377     1.1925     1.1925 H            1    LIG   0.0000
  21 H            2.2466     1.0604    -0.6552 H            1    LIG   0.0000
  22 H           -0.5172     0.3751    -0.8796 H            1    LIG   0.0000
  23 H            0.7751    -0.5323    -1.2959 H            1    LIG   0.0000
  24 H           -0.4371     1.5794    -2.7730 H            1    LIG   0.0000
  25 H           -0.0578     0.0781    -3.2916 H            1    LIG   0.0000
  26 H            1.5475     1.1680    -4.3315 H            1    LIG   0.0000
  27 H            2.3167     0.9586    -2.9063 H            1    LIG   0.0000
  28 H            2.3433     3.2350    -3.8277 H            1    LIG   0.0000
  29 H            0.7630     3.3073    -3.4225 H            1    LIG   0.0000
  30 H            2.9518     2.9872    -1.5950 H            1    LIG   0.0000
  31 H            2.0168     4.3181    -1.7403 H            1    LIG   0.0000
  32 H            1.2722     3.2712     0.1506 H            1    LIG   0.0000
  33 H            0.1478     2.9387    -0.9860 H            1    LIG   0.0000
  34 H            2.0294     2.7287     4.5802 H            1    LIG   0.0000
@<TRIPOS>BOND
   1        1        2 1
   2        2        3 2
   3        3        4 1
   4        4        5 1
   5        5        6 1
   6        6        7 1
   7        7        8 1
   8        8        9 1
   9        9       10 1
  10       10       11 1
  11       11       12 1
  12       12       13 1
  13       13        7 1
  14        4       14 1
  15       14        1 2
  16        1       15 1
  17        2       16 1
  18        5       17 1
  19        5       18 1
  20        6       19 1
  21        6       20 1
  22        7       21 1
  23        8       22 1
  24        8       23 1
  25        9       24 1
  26        9       25 1
  27       10       26 1
  28       10       27 1
  29       11       28 1
  30       11       29 1
  31       12       30 1
  32       12       31 1
  33       13       32 1
  34       13       33 1
  35       14       34 1

@<TRIPOS>MOLECULE

  34   35
SMALL
USER_CHARGES
@<TRIPOS>ATOM
   1 C1           2.4841     0.7735     5.2597 C.2          1    LIG   0.0000
   2 C2           2.6289    -0.4197     4.5158 C.2          1    LIG   0.0000
   3 N3           2.4226    -0.1032     3.2584 N.2          1    LIG   0.0000
   4 N4           2.1604     1.1806     3.1403 N.pl3        1    LIG   0.0000
   5 C5           1.8776     1.8776     1.8776 C.3          1    LIG   0.0000
   6 C6           1.0000     1.0000     1.0000 C.3          1    LIG   0.0000
   7 C7           1.2926     1.2926    -0.4630 C.3          1    LIG   0.0000
   8 C8           0.0472     0.9178    -1.2630 C.3          1    LIG   0.0000
   9 C9           0.2061     0.9186    -2.7810 C.3          1    LIG   0.0000
  10 C10          1.0796     2.0169    -3.3888 C.3          1    LIG   0.0000
  11 C11          2.5480     2.0015    -2.9691 C.3          1    LIG   0.0000
  12 C12          3.0188     0.7149    -2.2940 C.3          1    LIG   0.0000
  13 C13          2.5884     0.5746    -0.8364 C.3          1    LIG   0.0000
  14 C14          2.1906     1.7642     4.3706 C.2          1    LIG   0.0000
  15 H            2.5789     0.8721     6.2502 H            1    LIG   0.0000
  16 H            2.8459    -1.3268     4.8764 H            1    LIG   0.0000
  17 H            2.7367     2.0700     1.4034 H            1    LIG   0.0000
  18 H            1.4034     2.7367     2.0700 H            1    LIG   0.0000
  19 H            1.1925     0.0377     1.1925 H            1    LIG   0.0000
  20 H            0.0377     1.1925     1.1925 H            1    LIG   0.0000
  21 H            1.4417     2.2766    -0.5606 H            1    LIG   0.0000
  22 H           -0.6746     1.5695    -1.0300 H            1    LIG   0.0000
  23 H           -0.2311    -0.0014    -0.9844 H            1    LIG   0.0000
  24 H           -0.7070     1.0045    -3.1795 H            1    LIG   0.0000
  25 H            0.6026     0.0387    -3.0429 H            1    LIG   0.0000
  26 H            0.6929     2.8999    -3.1225 H            1    LIG   0.0000
  27 H            1.0431     1.9234    -4.3837 H            1    LIG   0.0000
  28 H            3.1050     2.1429    -3.7876 H            1    LIG   0.0000
  29 H            2.6952     2.7573    -2.3311 H            1    LIG   0.0000
  30 H            2.6485    -0.0604    -2.8056 H            1    LIG   0.0000
  31 H            4.0179     0.6908    -2.3289 H            1    LIG   0.0000
  32 H            2.4684    -0.3990    -0.6427 H            1    LIG   0.0000
  33 H            3.3205     0.9410    -0.2621 H            1    LIG   0.0000
  34 H            2.0294     2.7287     4.5802 H            1    LIG   0.0000
@<TRIPOS>BOND
   1        1        2 1
   2        2        3 2
   3        3        4 1
   4        4        5 1
   5        5        6 1
   6        6        7 1
   7        7        8 1
   8        8        9 1
   9        9       10 1
  10       10       11 1
  11       11       12 1
  12       12       13 1
  13       13        7 1
  14        4       14 1
  15       14        1 2
  16        1       15 1
  17        2       16 1
  18        5       17 1
  19        5       18 1
  20        6       19 1
  21        6       20 1
  22        7       21 1
  23        8       22 1
  24        8       23 1
  25        9       24 1
  26        9       25 1
  27       10       26 1
  28       10       27 1
  29       11       28 1
  30       11       29 1
  31       12       30 1
  32       12       31 1
  33       13       32 1
  34       13       33 1
  35       14       34 1

@<TRIPOS>MOLECULE

  34   35
SMALL
USER_CHARGES
@<TRIPOS>ATOM
   1 C1           0.7748     2.4909     5.2589 C.2          1    LIG   0.0000
   2 C2          -0.4188     2.6333     4.5153 C.2          1    LIG   0.0000
   3 N3          -0.1032     2.4226     3.2584 N.2          1    LIG   0.0000
   4 N4           1.1806     2.1604     3.1403 N.pl3        1    LIG   0.0000
   5 C5           1.8776     1.8776     1.8776 C.3          1    LIG   0.0000
   6 C6           1.0000     1.0000     1.0000 C.3          1    LIG   0.0000
   7 C7           1.2926     1.2926    -0.4630 C.3          1    LIG   0.0000
   8 C8           0.0472     0.9178    -1.2630 C.3          1    LIG   0.0000
   9 C9           0.2061     0.9186    -2.7810 C.3          1    LIG   0.0000
  10 C10          1.0796     2.0169    -3.3888 C.3          1    LIG   0.0000
  11 C11          2.5480     2.0015    -2.9691 C.3          1    LIG   0.0000
  12 C12          3.0188     0.7149    -2.2940 C.3          1    LIG   0.0000
  13 C13          2.5884     0.5746    -0.8364 C.3          1    LIG   0.0000
  14 C14          1.7647     2.1929     4.3704 C.2          1    LIG   0.0000
  15 H            0.8742     2.5900     6.2490 H            1    LIG   0.0000
  16 H           -1.3257     2.8518     4.8757 H            1    LIG   0.0000
  17 H            2.7367     1.4034     2.0700 H            1    LIG   0.0000
  18 H            2.0700     2.7367     1.4034 H            1    LIG   0.0000
  19 H            1.1925     0.0377     1.1925 H            1    LIG   0.0000
  20 H            0.0377     1.1925     1.1925 H            1    LIG   0.0000
  21 H            1.4417     2.2766    -0.5606 H            1    LIG   0.0000
  22 H           -0.6746     1.5695    -1.0300 H            1    LIG   0.0000
  23 H           -0.2311    -0.0014    -0.9844 H            1    LIG   0.0000
  24 H           -0.7070     1.0045    -3.1795 H            1    LIG   0.0000
  25 H            0.6026     0.0387    -3.0429 H            1    LIG   0.0000
  26 H            0.6929     2.8999    -3.1225 H            1    LIG   0.0000
  27 H            1.0431     1.9234    -4.3837 H            1    LIG   0.0000
  28 H            3.1050     2.1429    -3.7876 H            1    LIG   0.0000
  29 H            2.6952     2.7573    -2.3311 H            1    LIG   0.0000
  30 H            2.6485    -0.0604    -2.8056 H            1    LIG   0.0000
  31 H            4.0179     0.6908    -2.3289 H            1    LIG   0.0000
  32 H            2.4684    -0.3990    -0.6427 H            1    LIG   0.0000
  33 H            3.3205     0.9410    -0.2621 H            1    LIG   0.0000
  34 H            2.7288     2.0302     4.5801 H            1    LIG   0.0000
@<TRIPOS>BOND
   1        1        2 1
   2        2        3 2
   3        3        4 1
   4        4        5 1
   5        5        6 1
   6        6        7 1
   7        7        8 1
   8        8        9 1
   9        9       10 1
  10       10       11 1
  11       11       12 1
  12       12       13 1
  13       13        7 1
  14        4       14 1
  15       14        1 2
  16        1       15 1
  17        2       16 1
  18        5       17 1
  19        5       18 1
  20        6       19 1
  21        6       20 1
  22        7       21 1
  23        8       22 1
  24        8       23 1
  25        9       24 1
  26        9       25 1
  27       10       26 1
  28       10       27 1
  29       11       28 1
  30       11       29 1
  31       12       30 1
  32       12       31 1
  33       13       32 1
  34       13       33 1
  35       14       34 1

@<TRIPOS>MOLECULE

  34   35
SMALL
USER_CHARGES
@<TRIPOS>ATOM
   1 C1          -0.0264     1.9259     4.9432 C.2          1    LIG   0.0000
   2 C2           0.4676     3.2481     4.8668 C.2          1    LIG   0.0000
   3 N3           1.1795     3.3177     3.7660 N.2          1    LIG   0.0000
   4 N4           1.1806     2.1604     3.1403 N.pl3        1    LIG   0.0000
   5 C5           1.8776     1.8776     1.8776 C.3          1    LIG   0.0000
   6 C6           1.0000     1.0000     1.0000 C.3          1    LIG   0.0000
   7 C7           1.2926     1.2926    -0.4628 C.3          1    LIG   0.0000
   8 C8           0.9303     0.0710    -1.2911 C.3          1    LIG   0.0000
   9 C9           1.5171     0.1323    -2.6970 C.3          1    LIG   0.0000
  10 C10          0.5937     0.7437    -3.7461 C.3          1    LIG   0.0000
  11 C11         -0.1170     2.0028    -3.2716 C.3          1    LIG   0.0000
  12 C12          0.7208     2.8934    -2.3604 C.3          1    LIG   0.0000
  13 C13          0.5494     2.5520    -0.8865 C.3          1    LIG   0.0000
  14 C14          0.4360     1.2637     3.8451 C.2          1    LIG   0.0000
  15 H           -0.6053     1.5480     5.6657 H            1    LIG   0.0000
  16 H            0.3065     3.9856     5.5226 H            1    LIG   0.0000
  17 H            2.7367     1.4034     2.0700 H            1    LIG   0.0000
  18 H            2.0700     2.7367     1.4034 H            1    LIG   0.0000
  19 H            1.1925     0.0377     1.1925 H            1    LIG   0.0000
  20 H            0.0377     1.1925     1.1925 H            1    LIG   0.0000
  21 H            2.2738     1.4587    -0.5600 H            1    LIG   0.0000
  22 H           -0.0656     0.0129    -1.3603 H            1    LIG   0.0000
  23 H            1.2808    -0.7450    -0.8314 H            1    LIG   0.0000
  24 H            1.7395    -0.7998    -2.9828 H            1    LIG   0.0000
  25 H            2.3538     0.6788    -2.6620 H            1    LIG   0.0000
  26 H           -0.0975     0.0645    -3.9933 H            1    LIG   0.0000
  27 H            1.1390     0.9730    -4.5523 H            1    LIG   0.0000
  28 H           -0.3786     2.5363    -4.0759 H            1    LIG   0.0000
  29 H           -0.9386     1.7287    -2.7717 H            1    LIG   0.0000
  30 H            1.6844     2.7843    -2.6042 H            1    LIG   0.0000
  31 H            0.4467     3.8445    -2.5025 H            1    LIG   0.0000
  32 H            0.8906     3.3186    -0.3426 H            1    LIG   0.0000
  33 H           -0.4249     2.4210    -0.7035 H            1    LIG   0.0000
  34 H            0.2628     0.3086     3.6046 H            1    LIG   0.0000
@<TRIPOS>BOND
   1        1        2 1
   2        2        3 2
   3        3        4 1
   4        4        5 1
   5        5        6 1
   6        6        7 1
   7        7        8 1
   8        8        9 1
   9        9       10 1
  10       10       11 1
  11       11       12 1
  12       12       13 1
  13       13        7 1
  14        4       14 1
  15       14        1 2
  16        1       15 1
  17        2       16 1
  18        5       17 1
  19        5       18 1
  20        6       19 1
  21        6       20 1
  22        7       21 1
  23        8       22 1
  24        8       23 1
  25        9       24 1
  26        9       25 1
  27       10       26 1
  28       10       27 1
  29       11       28 1
  30       11       29 1
  31       12       30 1
  32       12       31 1
  33       13       32 1
  34       13       33 1
  35       14       34 1

@<TRIPOS>MOLECULE

  34   35
SMALL
USER_CHARGES
@<TRIPOS>ATOM
   1 C1          -0.0264     1.9259     4.9432 C.2          1    LIG   0.0000
   2 C2           0.4676     3.2481     4.8668 C.2          1    LIG   0.0000
   3 N3           1.1795     3.3177     3.7660 N.2          1    LIG   0.0000
   4 N4           1.1806     2.1604     3.1403 N.pl3        1    LIG   0.0000
   5 C5           1.8776     1.8776     1.8776 C.3          1    LIG   0.0000
   6 C6           1.0000     1.0000     1.0000 C.3          1    LIG   0.0000
   7 C7           1.2927     1.2927    -0.4633 C.3          1    LIG   0.0000
   8 C8           0.0439     0.9158    -1.2575 C.3          1    LIG   0.0000
   9 C9          -0.1705     1.7631    -2.5051 C.3          1    LIG   0.0000
  10 C10          1.1265     2.1521    -3.2053 C.3          1    LIG   0.0000
  11 C11          2.1654     1.0427    -3.2807 C.3          1    LIG   0.0000
  12 C12          3.1414     1.0661    -2.1106 C.3          1    LIG   0.0000
  13 C13          2.5396     0.5048    -0.8301 C.3          1    LIG   0.0000
  14 C14          0.4360     1.2637     3.8451 C.2          1    LIG   0.0000
  15 H           -0.6053     1.5480     5.6657 H            1    LIG   0.0000
  16 H            0.3065     3.9856     5.5226 H            1    LIG   0.0000
  17 H            2.7367     1.4034     2.0700 H            1    LIG   0.0000
  18 H            2.0700     2.7367     1.4034 H            1    LIG   0.0000
  19 H            1.1925     0.0377     1.1925 H            1    LIG   0.0000
  20 H            0.0377     1.1925     1.1925 H            1    LIG   0.0000
  21 H            1.4738     2.2697    -0.5755 H            1    LIG   0.0000
  22 H           -0.7526     1.0237    -0.6625 H            1    LIG   0.0000
  23 H            0.1244    -0.0411    -1.5364 H            1    LIG   0.0000
  24 H           -0.6510     2.5994    -2.2412 H            1    LIG   0.0000
  25 H           -0.7338     1.2437    -3.1477 H            1    LIG   0.0000
  26 H            1.5287     2.9224    -2.7105 H            1    LIG   0.0000
  27 H            0.9043     2.4347    -4.1384 H            1    LIG   0.0000
  28 H            1.6922     0.1617    -3.2843 H            1    LIG   0.0000
  29 H            2.6826     1.1467    -4.1302 H            1    LIG   0.0000
  30 H            3.9437     0.5205    -2.3526 H            1    LIG   0.0000
  31 H            3.4194     2.0123    -1.9451 H            1    LIG   0.0000
  32 H            2.2973    -0.4554    -0.9695 H            1    LIG   0.0000
  33 H            3.2078     0.5759    -0.0895 H            1    LIG   0.0000
  34 H            0.2628     0.3086     3.6046 H            1    LIG   0.0000
@<TRIPOS>BOND
   1        1        2 1
   2        2        3 2
   3        3        4 1
   4        4        5 1
   5        5        6 1
   6        6        7 1
   7        7        8 1
   8        8        9 1
   9        9       10 1
  10       10       11 1
  11       11       12 1
  12       12       13 1
  13       13        7 1
  14        4       14 1
  15       14        1 2
  16        1       15 1
  17        2       16 1
  18        5       17 1
  19        5       18 1
  20        6       19 1
  21        6       20 1
  22        7       21 1
  23        8       22 1
  24        8       23 1
  25        9       24 1
  26        9       25 1
  27       10       26 1
  28       10       27 1
  29       11       28 1
  30       11       29 1
  31       12       30 1
  32       12       31 1
  33       13       32 1
  34       13       33 1
  35       14       34 1

@<TRIPOS>MOLECULE

  34   35
SMALL
USER_CHARGES
@<TRIPOS>ATOM
   1 C1          -0.0811     3.1070     4.6484 C.2          1    LIG   0.0000
   2 C2           0.5181     1.9454     5.1865 C.2          1    LIG   0.0000
   3 N3           1.2580     1.4305     4.2321 N.2          1    LIG   0.0000
   4 N4           1.1806     2.1604     3.1403 N.pl3        1    LIG   0.0000
   5 C5           1.8776     1.8776     1.8776 C.3          1    LIG   0.0000
   6 C6           1.0000     1.0000     1.0000 C.3          1    LIG   0.0000
   7 C7           1.2927     1.2927    -0.4633 C.3          1    LIG   0.0000
   8 C8           0.3868     0.3868    -1.2947 C.3          1    LIG   0.0000
   9 C9          -0.0267     0.9899    -2.6310 C.3          1    LIG   0.0000
  10 C10          1.0656     1.8310    -3.2817 C.3          1    LIG   0.0000
  11 C11          2.4655     1.2429    -3.1806 C.3          1    LIG   0.0000
  12 C12          3.2286     1.7394    -1.9585 C.3          1    LIG   0.0000
  13 C13          2.7810     1.0638    -0.6700 C.3          1    LIG   0.0000
  14 C14          0.3528     3.2194     3.3611 C.2          1    LIG   0.0000
  15 H           -0.7050     3.7284     5.1222 H            1    LIG   0.0000
  16 H            0.4014     1.5863     6.1125 H            1    LIG   0.0000
  17 H            2.7367     1.4034     2.0700 H            1    LIG   0.0000
  18 H            2.0700     2.7367     1.4034 H            1    LIG   0.0000
  19 H            1.1925     0.0377     1.1925 H            1    LIG   0.0000
  20 H            0.0377     1.1925     1.1925 H            1    LIG   0.0000
  21 H            1.0746     2.2487    -0.6596 H            1    LIG   0.0000
  22 H           -0.4400     0.1964    -0.7655 H            1    LIG   0.0000
  23 H            0.8735    -0.4686    -1.4720 H            1    LIG   0.0000
  24 H           -0.8271     1.5706    -2.4822 H            1    LIG   0.0000
  25 H           -0.2663     0.2452    -3.2539 H            1    LIG   0.0000
  26 H            1.0721     2.7284    -2.8406 H            1    LIG   0.0000
  27 H            0.8415     1.9372    -4.2504 H            1    LIG   0.0000
  28 H            2.3905     0.2472    -3.1275 H            1    LIG   0.0000
  29 H            2.9779     1.4954    -4.0014 H            1    LIG   0.0000
  30 H            4.2024     1.5565    -2.0937 H            1    LIG   0.0000
  31 H            3.0836     2.7248    -1.8698 H            1    LIG   0.0000
  32 H            2.9614     0.0820    -0.7292 H            1    LIG   0.0000
  33 H            3.2871     1.4499     0.1012 H            1    LIG   0.0000
  34 H            0.1112     3.9371     2.7081 H            1    LIG   0.0000
@<TRIPOS>BOND
   1        1        2 1
   2        2        3 2
   3        3        4 1
   4        4        5 1
   5        5        6 1
   6        6        7 1
   7        7        8 1
   8        8        9 1
   9        9       10 1
  10       10       11 1
  11       11       12 1
  12       12       13 1
  13       13        7 1
  14        4       14 1
  15       14        1 2
  16        1       15 1
  17        2       16 1
  18        5       17 1
  19        5       18 1
  20        6       19 1
  21        6       20 1
  22        7       21 1
  23        8       22 1
  24        8       23 1
  25        9       24 1
  26        9       25 1
  27       10       26 1
  28       10       27 1
  29       11       28 1
  30       11       29 1
  31       12       30 1
  32       12       31 1
  33       13       32 1
  34       13       33 1
  35       14       34 1

@<TRIPOS>MOLECULE

  34   35
SMALL
USER_CHARGES
@<TRIPOS>ATOM
   1 C1           0.4185     3.1941     4.9046 C.2          1    LIG   0.0000
   2 C2          -0.0325     1.8544     4.9030 C.2          1    LIG   0.0000
   3 N3           0.4601     1.2959     3.8218 N.2          1    LIG   0.0000
   4 N4           1.1806     2.1604     3.1403 N.pl3        1    LIG   0.0000
   5 C5           1.8776     1.8776     1.8776 C.3          1    LIG   0.0000
   6 C6           1.0000     1.0000     1.0000 C.3          1    LIG   0.0000
   7 C7           1.2926     1.2926    -0.4628 C.3          1    LIG   0.0000
   8 C8           0.9303     0.0710    -1.2911 C.3          1    LIG   0.0000
   9 C9           1.5171     0.1323    -2.6970 C.3          1    LIG   0.0000
  10 C10          0.5937     0.7437    -3.7461 C.3          1    LIG   0.0000
  11 C11         -0.1170     2.0028    -3.2716 C.3          1    LIG   0.0000
  12 C12          0.7208     2.8934    -2.3604 C.3          1    LIG   0.0000
  13 C13          0.5494     2.5520    -0.8865 C.3          1    LIG   0.0000
  14 C14          1.1797     3.3597     3.7861 C.2          1    LIG   0.0000
  15 H            0.2173     3.8886     5.5954 H            1    LIG   0.0000
  16 H           -0.6128     1.4178     5.5905 H            1    LIG   0.0000
  17 H            2.7367     1.4034     2.0700 H            1    LIG   0.0000
  18 H            2.0700     2.7367     1.4034 H            1    LIG   0.0000
  19 H            1.1925     0.0377     1.1925 H            1    LIG   0.0000
  20 H            0.0377     1.1925     1.1925 H            1    LIG   0.0000
  21 H            2.2738     1.4587    -0.5600 H            1    LIG   0.0000
  22 H           -0.0656     0.0129    -1.3603 H            1    LIG   0.0000
  23 H            1.2808    -0.7450    -0.8314 H            1    LIG   0.0000
  24 H            1.7395    -0.7998    -2.9828 H            1    LIG   0.0000
  25 H            2.3538     0.6788    -2.6620 H            1    LIG   0.0000
  26 H           -0.0975     0.0645    -3.9933 H            1    LIG   0.0000
  27 H            1.1390     0.9730    -4.5523 H            1    LIG   0.0000
  28 H           -0.3786     2.5363    -4.0759 H            1    LIG   0.0000
  29 H           -0.9386     1.7287    -2.7717 H            1    LIG   0.0000
  30 H            1.6844     2.7843    -2.6042 H            1    LIG   0.0000
  31 H            0.4467     3.8445    -2.5025 H            1    LIG   0.0000
  32 H            0.8906     3.3186    -0.3426 H            1    LIG   0.0000
  33 H           -0.4249     2.4210    -0.7035 H            1    LIG   0.0000
  34 H            1.6453     4.1961     3.4968 H            1    LIG   0.0000
@<TRIPOS>BOND
   1        1        2 1
   2        2        3 2
   3        3        4 1
   4        4        5 1
   5        5        6 1
   6        6        7 1
   7        7        8 1
   8        8        9 1
   9        9       10 1
  10       10       11 1
  11       11       12 1
  12       12       13 1
  13       13        7 1
  14        4       14 1
  15       14        1 2
  16        1       15 1
  17        2       16 1
  18        5       17 1
  19        5       18 1
  20        6       19 1
  21        6       20 1
  22        7       21 1
  23        8       22 1
  24        8       23 1
  25        9       24 1
  26        9       25 1
  27       10       26 1
  28       10       27 1
  29       11       28 1
  30       11       29 1
  31       12       30 1
  32       12       31 1
  33       13       32 1
  34       13       33 1
  35       14       34 1

