@<TRIPOS>MOLECULE
*****
 34 35 0 0 0
SMALL
USER_CHARGES

@<TRIPOS>ATOM
      1 C1          2.4841    0.7735    5.2597 C.2     1  LIG1        0.0000
      2 C2          2.6289   -0.4197    4.5158 C.2     1  LIG1        0.0000
      3 N3          2.4226   -0.1032    3.2584 N.2     1  LIG1        0.0000
      4 N4          2.1604    1.1806    3.1403 N.pl3   1  LIG1        0.0000
      5 C5          1.8776    1.8776    1.8776 C.3     1  LIG1        0.0000
      6 C6          1.0000    1.0000    1.0000 C.3     1  LIG1        0.0000
      7 C7          1.2929    1.2929   -0.4643 C.3     1  LIG1        0.0000
      8 C8          0.3910    0.3910   -1.2979 C.3     1  LIG1        0.0000
      9 C9          0.2511    0.8545   -2.7423 C.3     1  LIG1        0.0000
     10 C10         1.5359    1.3914   -3.3569 C.3     1  LIG1        0.0000
     11 C11         1.6463    2.8971   -3.1952 C.3     1  LIG1        0.0000
     12 C12         2.0276    3.3191   -1.7838 C.3     1  LIG1        0.0000
     13 C13         1.0938    2.7812   -0.7027 C.3     1  LIG1        0.0000
     14 C14         2.1906    1.7642    4.3706 C.2     1  LIG1        0.0000
     15 H           2.5789    0.8721    6.2502 H       1  LIG1        0.0000
     16 H           2.8459   -1.3268    4.8764 H       1  LIG1        0.0000
     17 H           2.7367    2.0700    1.4034 H       1  LIG1        0.0000
     18 H           1.4034    2.7367    2.0700 H       1  LIG1        0.0000
     19 H           1.1925    0.0377    1.1925 H       1  LIG1        0.0000
     20 H           0.0377    1.1925    1.1925 H       1  LIG1        0.0000
     21 H           2.2466    1.0604   -0.6552 H       1  LIG1        0.0000
     22 H          -0.5172    0.3751   -0.8796 H       1  LIG1        0.0000
     23 H           0.7751   -0.5323   -1.2959 H       1  LIG1        0.0000
     24 H          -0.4371    1.5794   -2.7730 H       1  LIG1        0.0000
     25 H          -0.0578    0.0781   -3.2916 H       1  LIG1        0.0000
     26 H           1.5475    1.1680   -4.3315 H       1  LIG1        0.0000
     27 H           2.3167    0.9586   -2.9063 H       1  LIG1        0.0000
     28 H           2.3433    3.2350   -3.8277 H       1  LIG1        0.0000
     29 H           0.7630    3.3073   -3.4225 H       1  LIG1        0.0000
     30 H           2.9518    2.9872   -1.5950 H       1  LIG1        0.0000
     31 H           2.0168    4.3181   -1.7403 H       1  LIG1        0.0000
     32 H           1.2722    3.2712    0.1506 H       1  LIG1        0.0000
     33 H           0.1478    2.9387   -0.9860 H       1  LIG1        0.0000
     34 H           2.0294    2.7287    4.5802 H       1  LIG1        0.0000
@<TRIPOS>BOND
     1     1     2    1
     2     2     3    2
     3     3     4    1
     4     4     5    1
     5     5     6    1
     6     6     7    1
     7     7     8    1
     8     8     9    1
     9     9    10    1
    10    10    11    1
    11    11    12    1
    12    12    13    1
    13    13     7    1
    14     4    14    1
    15    14     1    2
    16     1    15    1
    17     2    16    1
    18     5    17    1
    19     5    18    1
    20     6    19    1
    21     6    20    1
    22     7    21    1
    23     8    22    1
    24     8    23    1
    25     9    24    1
    26     9    25    1
    27    10    26    1
    28    10    27    1
    29    11    28    1
    30    11    29    1
    31    12    30    1
    32    12    31    1
    33    13    32    1
    34    13    33    1
    35    14    34    1
