@<TRIPOS>MOLECULE
*****
 34 35 0 0 0
SMALL
USER_CHARGES

@<TRIPOS>ATOM
      1 C1         -0.0264    1.9259    4.9432 C.2     1  LIG1        0.0000
      2 C2          0.4676    3.2481    4.8668 C.2     1  LIG1        0.0000
      3 N3          1.1795    3.3177    3.7660 N.2     1  LIG1        0.0000
      4 N4          1.1806    2.1604    3.1403 N.pl3   1  LIG1        0.0000
      5 C5          1.8776    1.8776    1.8776 C.3     1  LIG1        0.0000
      6 C6          1.0000    1.0000    1.0000 C.3     1  LIG1        0.0000
      7 C7          1.2927    1.2927   -0.4633 C.3     1  LIG1        0.0000
      8 C8          0.0439    0.9158   -1.2575 C.3     1  LIG1        0.0000
      9 C9         -0.1705    1.7631   -2.5051 C.3     1  LIG1        0.0000
     10 C10         1.1265    2.1521   -3.2053 C.3     1  LIG1        0.0000
     11 C11         2.1654    1.0427   -3.2807 C.3     1  LIG1        0.0000
     12 C12         3.1414    1.0661   -2.1106 C.3     1  LIG1        0.0000
     13 C13         2.5396    0.5048   -0.8301 C.3     1  LIG1        0.0000
     14 C14         0.4360    1.2637    3.8451 C.2     1  LIG1        0.0000
     15 H          -0.6053    1.5480    5.6657 H       1  LIG1        0.0000
     16 H           0.3065    3.9856    5.5226 H       1  LIG1        0.0000
     17 H           2.7367    1.4034    2.0700 H       1  LIG1        0.0000
     18 H           2.0700    2.7367    1.4034 H       1  LIG1        0.0000
     19 H           1.1925    0.0377    1.1925 H       1  LIG1        0.0000
     20 H           0.0377    1.1925    1.1925 H       1  LIG1        0.0000
     21 H           1.4738    2.2697   -0.5755 H       1  LIG1        0.0000
     22 H          -0.7526    1.0237   -0.6625 H       1  LIG1        0.0000
     23 H           0.1244   -0.0411   -1.5364 H       1  LIG1        0.0000
     24 H          -0.6510    2.5994   -2.2412 H       1  LIG1        0.0000
     25 H          -0.7338    1.2437   -3.1477 H       1  LIG1        0.0000
     26 H           1.5287    2.9224   -2.7105 H       1  LIG1        0.0000
     27 H           0.9043    2.4347   -4.1384 H       1  LIG1        0.0000
     28 H           1.6922    0.1617   -3.2843 H       1  LIG1        0.0000
     29 H           2.6826    1.1467   -4.1302 H       1  LIG1        0.0000
     30 H           3.9437    0.5205   -2.3526 H       1  LIG1        0.0000
     31 H           3.4194    2.0123   -1.9451 H       1  LIG1        0.0000
     32 H           2.2973   -0.4554   -0.9695 H       1  LIG1        0.0000
     33 H           3.2078    0.5759   -0.0895 H       1  LIG1        0.0000
     34 H           0.2628    0.3086    3.6046 H       1  LIG1        0.0000
@<TRIPOS>BOND
     1     1     2    1
     2     2     3    2
     3     3     4    1
     4     4     5    1
     5     5     6    1
     6     6     7    1
     7     7     8    1
     8     8     9    1
     9     9    10    1
    10    10    11    1
    11    11    12    1
    12    12    13    1
    13    13     7    1
    14     4    14    1
    15    14     1    2
    16     1    15    1
    17     2    16    1
    18     5    17    1
    19     5    18    1
    20     6    19    1
    21     6    20    1
    22     7    21    1
    23     8    22    1
    24     8    23    1
    25     9    24    1
    26     9    25    1
    27    10    26    1
    28    10    27    1
    29    11    28    1
    30    11    29    1
    31    12    30    1
    32    12    31    1
    33    13    32    1
    34    13    33    1
    35    14    34    1
