@<TRIPOS>MOLECULE
*****
 34 35 0 0 0
SMALL
USER_CHARGES

@<TRIPOS>ATOM
      1 C1          1.6729    0.7222    5.2906 C.2     1  LIG1        0.0000
      2 C2          0.6818    1.7291    5.2466 C.2     1  LIG1        0.0000
      3 N3          0.6893    2.2073    4.0239 N.2     1  LIG1        0.0000
      4 N4          1.5947    1.5947    3.2919 N.pl3   1  LIG1        0.0000
      5 C5          1.8776    1.8776    1.8776 C.3     1  LIG1        0.0000
      6 C6          1.0000    1.0000    1.0000 C.3     1  LIG1        0.0000
      7 C7          1.2925    1.2925   -0.4624 C.3     1  LIG1        0.0000
      8 C8          0.4003    0.4003   -1.3102 C.3     1  LIG1        0.0000
      9 C9          0.6566    0.5646   -2.8029 C.3     1  LIG1        0.0000
     10 C10         1.9374   -0.1047   -3.2898 C.3     1  LIG1        0.0000
     11 C11         3.1716    0.7862   -3.2429 C.3     1  LIG1        0.0000
     12 C12         3.2243    1.7188   -2.0395 C.3     1  LIG1        0.0000
     13 C13         2.7782    1.0804   -0.7282 C.3     1  LIG1        0.0000
     14 C14         2.2308    0.6576    4.0486 C.2     1  LIG1        0.0000
     15 H           1.9182    0.1632    6.0826 H       1  LIG1        0.0000
     16 H           0.0909    2.0201    5.9990 H       1  LIG1        0.0000
     17 H           2.8398    1.6851    1.6851 H       1  LIG1        0.0000
     18 H           1.6851    2.8398    1.6851 H       1  LIG1        0.0000
     19 H           1.1925    0.0377    1.1925 H       1  LIG1        0.0000
     20 H           0.0377    1.1925    1.1925 H       1  LIG1        0.0000
     21 H           1.0649    2.2478   -0.6512 H       1  LIG1        0.0000
     22 H          -0.5545    0.6304   -1.1219 H       1  LIG1        0.0000
     23 H           0.5692   -0.5529   -1.0592 H       1  LIG1        0.0000
     24 H           0.7157    1.5420   -3.0061 H       1  LIG1        0.0000
     25 H          -0.1146    0.1669   -3.3000 H       1  LIG1        0.0000
     26 H           1.7977   -0.3956   -4.2363 H       1  LIG1        0.0000
     27 H           2.1086   -0.9061   -2.7166 H       1  LIG1        0.0000
     28 H           3.9811    0.1995   -3.2205 H       1  LIG1        0.0000
     29 H           3.1872    1.3441   -4.0727 H       1  LIG1        0.0000
     30 H           4.1669    2.0341   -1.9292 H       1  LIG1        0.0000
     31 H           2.6304    2.5018   -2.2243 H       1  LIG1        0.0000
     32 H           2.9612    0.0981   -0.7692 H       1  LIG1        0.0000
     33 H           3.3008    1.4857    0.0219 H       1  LIG1        0.0000
     34 H           2.9623    0.0438    3.7517 H       1  LIG1        0.0000
@<TRIPOS>BOND
     1     1     2    1
     2     2     3    2
     3     3     4    1
     4     4     5    1
     5     5     6    1
     6     6     7    1
     7     7     8    1
     8     8     9    1
     9     9    10    1
    10    10    11    1
    11    11    12    1
    12    12    13    1
    13    13     7    1
    14     4    14    1
    15    14     1    2
    16     1    15    1
    17     2    16    1
    18     5    17    1
    19     5    18    1
    20     6    19    1
    21     6    20    1
    22     7    21    1
    23     8    22    1
    24     8    23    1
    25     9    24    1
    26     9    25    1
    27    10    26    1
    28    10    27    1
    29    11    28    1
    30    11    29    1
    31    12    30    1
    32    12    31    1
    33    13    32    1
    34    13    33    1
    35    14    34    1
