@<TRIPOS>MOLECULE
*****
 34 35 0 0 0
SMALL
USER_CHARGES

@<TRIPOS>ATOM
      1 C1         -0.0264    1.9259    4.9432 C.2     1  LIG1        0.0000
      2 C2          0.4676    3.2481    4.8668 C.2     1  LIG1        0.0000
      3 N3          1.1795    3.3177    3.7660 N.2     1  LIG1        0.0000
      4 N4          1.1806    2.1604    3.1403 N.pl3   1  LIG1        0.0000
      5 C5          1.8776    1.8776    1.8776 C.3     1  LIG1        0.0000
      6 C6          1.0000    1.0000    1.0000 C.3     1  LIG1        0.0000
      7 C7          1.2926    1.2926   -0.4628 C.3     1  LIG1        0.0000
      8 C8          0.9303    0.0710   -1.2911 C.3     1  LIG1        0.0000
      9 C9          1.5171    0.1323   -2.6970 C.3     1  LIG1        0.0000
     10 C10         0.5937    0.7437   -3.7461 C.3     1  LIG1        0.0000
     11 C11        -0.1170    2.0028   -3.2716 C.3     1  LIG1        0.0000
     12 C12         0.7208    2.8934   -2.3604 C.3     1  LIG1        0.0000
     13 C13         0.5494    2.5520   -0.8865 C.3     1  LIG1        0.0000
     14 C14         0.4360    1.2637    3.8451 C.2     1  LIG1        0.0000
     15 H          -0.6053    1.5480    5.6657 H       1  LIG1        0.0000
     16 H           0.3065    3.9856    5.5226 H       1  LIG1        0.0000
     17 H           2.7367    1.4034    2.0700 H       1  LIG1        0.0000
     18 H           2.0700    2.7367    1.4034 H       1  LIG1        0.0000
     19 H           1.1925    0.0377    1.1925 H       1  LIG1        0.0000
     20 H           0.0377    1.1925    1.1925 H       1  LIG1        0.0000
     21 H           2.2738    1.4587   -0.5600 H       1  LIG1        0.0000
     22 H          -0.0656    0.0129   -1.3603 H       1  LIG1        0.0000
     23 H           1.2808   -0.7450   -0.8314 H       1  LIG1        0.0000
     24 H           1.7395   -0.7998   -2.9828 H       1  LIG1        0.0000
     25 H           2.3538    0.6788   -2.6620 H       1  LIG1        0.0000
     26 H          -0.0975    0.0645   -3.9933 H       1  LIG1        0.0000
     27 H           1.1390    0.9730   -4.5523 H       1  LIG1        0.0000
     28 H          -0.3786    2.5363   -4.0759 H       1  LIG1        0.0000
     29 H          -0.9386    1.7287   -2.7717 H       1  LIG1        0.0000
     30 H           1.6844    2.7843   -2.6042 H       1  LIG1        0.0000
     31 H           0.4467    3.8445   -2.5025 H       1  LIG1        0.0000
     32 H           0.8906    3.3186   -0.3426 H       1  LIG1        0.0000
     33 H          -0.4249    2.4210   -0.7035 H       1  LIG1        0.0000
     34 H           0.2628    0.3086    3.6046 H       1  LIG1        0.0000
@<TRIPOS>BOND
     1     1     2    1
     2     2     3    2
     3     3     4    1
     4     4     5    1
     5     5     6    1
     6     6     7    1
     7     7     8    1
     8     8     9    1
     9     9    10    1
    10    10    11    1
    11    11    12    1
    12    12    13    1
    13    13     7    1
    14     4    14    1
    15    14     1    2
    16     1    15    1
    17     2    16    1
    18     5    17    1
    19     5    18    1
    20     6    19    1
    21     6    20    1
    22     7    21    1
    23     8    22    1
    24     8    23    1
    25     9    24    1
    26     9    25    1
    27    10    26    1
    28    10    27    1
    29    11    28    1
    30    11    29    1
    31    12    30    1
    32    12    31    1
    33    13    32    1
    34    13    33    1
    35    14    34    1
