@<TRIPOS>MOLECULE
*****
 34 35 0 0 0
SMALL
USER_CHARGES

@<TRIPOS>ATOM
      1 C1          0.7174    1.6681    5.2887 C.2     1  LIG1        0.0000
      2 C2          1.7260    0.6787    5.2453 C.2     1  LIG1        0.0000
      3 N3          2.2073    0.6893    4.0239 N.2     1  LIG1        0.0000
      4 N4          1.5947    1.5947    3.2919 N.pl3   1  LIG1        0.0000
      5 C5          1.8776    1.8776    1.8776 C.3     1  LIG1        0.0000
      6 C6          1.0000    1.0000    1.0000 C.3     1  LIG1        0.0000
      7 C7          1.2926    1.2926   -0.4628 C.3     1  LIG1        0.0000
      8 C8          0.4090    0.4090   -1.3278 C.3     1  LIG1        0.0000
      9 C9          0.8781    0.3670   -2.7779 C.3     1  LIG1        0.0000
     10 C10         0.2215    1.3990   -3.6894 C.3     1  LIG1        0.0000
     11 C11         0.1218    2.7842   -3.0675 C.3     1  LIG1        0.0000
     12 C12         1.3075    3.1668   -2.1884 C.3     1  LIG1        0.0000
     13 C13         1.1059    2.7798   -0.7297 C.3     1  LIG1        0.0000
     14 C14         0.6560    2.2293    4.0479 C.2     1  LIG1        0.0000
     15 H           0.1555    1.9105    6.0796 H       1  LIG1        0.0000
     16 H           2.0160    0.0868    5.9974 H       1  LIG1        0.0000
     17 H           2.8398    1.6851    1.6851 H       1  LIG1        0.0000
     18 H           1.6851    2.8398    1.6851 H       1  LIG1        0.0000
     19 H           1.1925    0.0377    1.1925 H       1  LIG1        0.0000
     20 H           0.0377    1.1925    1.1925 H       1  LIG1        0.0000
     21 H           2.2472    1.0577   -0.6456 H       1  LIG1        0.0000
     22 H          -0.5253    0.7645   -1.3019 H       1  LIG1        0.0000
     23 H           0.4226   -0.5200   -0.9581 H       1  LIG1        0.0000
     24 H           0.6798   -0.5425   -3.1433 H       1  LIG1        0.0000
     25 H           1.8657    0.5233   -2.7907 H       1  LIG1        0.0000
     26 H          -0.7016    1.0842   -3.9102 H       1  LIG1        0.0000
     27 H           0.7601    1.4674   -4.5292 H       1  LIG1        0.0000
     28 H           0.0511    3.4544   -3.8063 H       1  LIG1        0.0000
     29 H          -0.7061    2.8168   -2.5076 H       1  LIG1        0.0000
     30 H           2.1239    2.7030   -2.5326 H       1  LIG1        0.0000
     31 H           1.4391    4.1566   -2.2416 H       1  LIG1        0.0000
     32 H           1.7655    3.2860   -0.1741 H       1  LIG1        0.0000
     33 H           0.1774    3.0354   -0.4601 H       1  LIG1        0.0000
     34 H           0.0432    2.9617    3.7514 H       1  LIG1        0.0000
@<TRIPOS>BOND
     1     1     2    1
     2     2     3    2
     3     3     4    1
     4     4     5    1
     5     5     6    1
     6     6     7    1
     7     7     8    1
     8     8     9    1
     9     9    10    1
    10    10    11    1
    11    11    12    1
    12    12    13    1
    13    13     7    1
    14     4    14    1
    15    14     1    2
    16     1    15    1
    17     2    16    1
    18     5    17    1
    19     5    18    1
    20     6    19    1
    21     6    20    1
    22     7    21    1
    23     8    22    1
    24     8    23    1
    25     9    24    1
    26     9    25    1
    27    10    26    1
    28    10    27    1
    29    11    28    1
    30    11    29    1
    31    12    30    1
    32    12    31    1
    33    13    32    1
    34    13    33    1
    35    14    34    1
