@<TRIPOS>MOLECULE
*****
 34 35 0 0 0
SMALL
USER_CHARGES

@<TRIPOS>ATOM
      1 C1          2.4841    0.7735    5.2597 C.2     1  LIG1        0.0000
      2 C2          2.6289   -0.4197    4.5158 C.2     1  LIG1        0.0000
      3 N3          2.4226   -0.1032    3.2584 N.2     1  LIG1        0.0000
      4 N4          2.1604    1.1806    3.1403 N.pl3   1  LIG1        0.0000
      5 C5          1.8776    1.8776    1.8776 C.3     1  LIG1        0.0000
      6 C6          1.0000    1.0000    1.0000 C.3     1  LIG1        0.0000
      7 C7          1.2926    1.2926   -0.4630 C.3     1  LIG1        0.0000
      8 C8          0.0472    0.9178   -1.2630 C.3     1  LIG1        0.0000
      9 C9          0.2061    0.9186   -2.7810 C.3     1  LIG1        0.0000
     10 C10         1.0796    2.0169   -3.3888 C.3     1  LIG1        0.0000
     11 C11         2.5480    2.0015   -2.9691 C.3     1  LIG1        0.0000
     12 C12         3.0188    0.7149   -2.2940 C.3     1  LIG1        0.0000
     13 C13         2.5884    0.5746   -0.8364 C.3     1  LIG1        0.0000
     14 C14         2.1906    1.7642    4.3706 C.2     1  LIG1        0.0000
     15 H           2.5789    0.8721    6.2502 H       1  LIG1        0.0000
     16 H           2.8459   -1.3268    4.8764 H       1  LIG1        0.0000
     17 H           2.7367    2.0700    1.4034 H       1  LIG1        0.0000
     18 H           1.4034    2.7367    2.0700 H       1  LIG1        0.0000
     19 H           1.1925    0.0377    1.1925 H       1  LIG1        0.0000
     20 H           0.0377    1.1925    1.1925 H       1  LIG1        0.0000
     21 H           1.4417    2.2766   -0.5606 H       1  LIG1        0.0000
     22 H          -0.6746    1.5695   -1.0300 H       1  LIG1        0.0000
     23 H          -0.2311   -0.0014   -0.9844 H       1  LIG1        0.0000
     24 H          -0.7070    1.0045   -3.1795 H       1  LIG1        0.0000
     25 H           0.6026    0.0387   -3.0429 H       1  LIG1        0.0000
     26 H           0.6929    2.8999   -3.1225 H       1  LIG1        0.0000
     27 H           1.0431    1.9234   -4.3837 H       1  LIG1        0.0000
     28 H           3.1050    2.1429   -3.7876 H       1  LIG1        0.0000
     29 H           2.6952    2.7573   -2.3311 H       1  LIG1        0.0000
     30 H           2.6485   -0.0604   -2.8056 H       1  LIG1        0.0000
     31 H           4.0179    0.6908   -2.3289 H       1  LIG1        0.0000
     32 H           2.4684   -0.3990   -0.6427 H       1  LIG1        0.0000
     33 H           3.3205    0.9410   -0.2621 H       1  LIG1        0.0000
     34 H           2.0294    2.7287    4.5802 H       1  LIG1        0.0000
@<TRIPOS>BOND
     1     1     2    1
     2     2     3    2
     3     3     4    1
     4     4     5    1
     5     5     6    1
     6     6     7    1
     7     7     8    1
     8     8     9    1
     9     9    10    1
    10    10    11    1
    11    11    12    1
    12    12    13    1
    13    13     7    1
    14     4    14    1
    15    14     1    2
    16     1    15    1
    17     2    16    1
    18     5    17    1
    19     5    18    1
    20     6    19    1
    21     6    20    1
    22     7    21    1
    23     8    22    1
    24     8    23    1
    25     9    24    1
    26     9    25    1
    27    10    26    1
    28    10    27    1
    29    11    28    1
    30    11    29    1
    31    12    30    1
    32    12    31    1
    33    13    32    1
    34    13    33    1
    35    14    34    1
