@<TRIPOS>MOLECULE
*****
 34 35 0 0 0
SMALL
USER_CHARGES

@<TRIPOS>ATOM
      1 C1         -0.0811    3.1070    4.6484 C.2     1  LIG1        0.0000
      2 C2          0.5181    1.9454    5.1865 C.2     1  LIG1        0.0000
      3 N3          1.2580    1.4305    4.2321 N.2     1  LIG1        0.0000
      4 N4          1.1806    2.1604    3.1403 N.pl3   1  LIG1        0.0000
      5 C5          1.8776    1.8776    1.8776 C.3     1  LIG1        0.0000
      6 C6          1.0000    1.0000    1.0000 C.3     1  LIG1        0.0000
      7 C7          1.2927    1.2927   -0.4633 C.3     1  LIG1        0.0000
      8 C8          0.3868    0.3868   -1.2947 C.3     1  LIG1        0.0000
      9 C9         -0.0267    0.9899   -2.6310 C.3     1  LIG1        0.0000
     10 C10         1.0656    1.8310   -3.2817 C.3     1  LIG1        0.0000
     11 C11         2.4655    1.2429   -3.1806 C.3     1  LIG1        0.0000
     12 C12         3.2286    1.7394   -1.9585 C.3     1  LIG1        0.0000
     13 C13         2.7810    1.0638   -0.6700 C.3     1  LIG1        0.0000
     14 C14         0.3528    3.2194    3.3611 C.2     1  LIG1        0.0000
     15 H          -0.7050    3.7284    5.1222 H       1  LIG1        0.0000
     16 H           0.4014    1.5863    6.1125 H       1  LIG1        0.0000
     17 H           2.7367    1.4034    2.0700 H       1  LIG1        0.0000
     18 H           2.0700    2.7367    1.4034 H       1  LIG1        0.0000
     19 H           1.1925    0.0377    1.1925 H       1  LIG1        0.0000
     20 H           0.0377    1.1925    1.1925 H       1  LIG1        0.0000
     21 H           1.0746    2.2487   -0.6596 H       1  LIG1        0.0000
     22 H          -0.4400    0.1964   -0.7655 H       1  LIG1        0.0000
     23 H           0.8735   -0.4686   -1.4720 H       1  LIG1        0.0000
     24 H          -0.8271    1.5706   -2.4822 H       1  LIG1        0.0000
     25 H          -0.2663    0.2452   -3.2539 H       1  LIG1        0.0000
     26 H           1.0721    2.7284   -2.8406 H       1  LIG1        0.0000
     27 H           0.8415    1.9372   -4.2504 H       1  LIG1        0.0000
     28 H           2.3905    0.2472   -3.1275 H       1  LIG1        0.0000
     29 H           2.9779    1.4954   -4.0014 H       1  LIG1        0.0000
     30 H           4.2024    1.5565   -2.0937 H       1  LIG1        0.0000
     31 H           3.0836    2.7248   -1.8698 H       1  LIG1        0.0000
     32 H           2.9614    0.0820   -0.7292 H       1  LIG1        0.0000
     33 H           3.2871    1.4499    0.1012 H       1  LIG1        0.0000
     34 H           0.1112    3.9371    2.7081 H       1  LIG1        0.0000
@<TRIPOS>BOND
     1     1     2    1
     2     2     3    2
     3     3     4    1
     4     4     5    1
     5     5     6    1
     6     6     7    1
     7     7     8    1
     8     8     9    1
     9     9    10    1
    10    10    11    1
    11    11    12    1
    12    12    13    1
    13    13     7    1
    14     4    14    1
    15    14     1    2
    16     1    15    1
    17     2    16    1
    18     5    17    1
    19     5    18    1
    20     6    19    1
    21     6    20    1
    22     7    21    1
    23     8    22    1
    24     8    23    1
    25     9    24    1
    26     9    25    1
    27    10    26    1
    28    10    27    1
    29    11    28    1
    30    11    29    1
    31    12    30    1
    32    12    31    1
    33    13    32    1
    34    13    33    1
    35    14    34    1
