@<TRIPOS>MOLECULE

  33   35
SMALL
USER_CHARGES
@<TRIPOS>ATOM
   1 Cl1          4.4917     4.5098     4.5030 Cl           1    LIG   0.0000
   2 C2           3.4673     3.4796     3.4749 C.ar         1    LIG   0.0000
   3 C3           2.1210     3.7928     3.3184 C.ar         1    LIG   0.0000
   4 C4           1.3254     2.9841     2.5133 C.ar         1    LIG   0.0000
   5 C5           1.8776     1.8776     1.8776 C.ar         1    LIG   0.0000
   6 C6           1.0000     1.0000     1.0000 C.3          1    LIG   0.0000
   7 C7           0.3852    -0.1056     1.8427 C.3          1    LIG   0.0000
   8 N8          -0.4650    -0.9558     0.9925 N.3          1    LIG   0.0000
   9 O9          -0.5390    -2.2536     1.4505 O.3          1    LIG   0.0000
  10 C10         -1.8596    -2.7387     1.6098 C.3          1    LIG   0.0000
  11 C11         -2.6244    -2.5418     0.3146 C.2          1    LIG   0.0000
  12 C12         -2.5861    -1.3101    -0.1401 C.2          1    LIG   0.0000
  13 C13         -1.7913    -0.3686     0.7393 C.3          1    LIG   0.0000
  14 C14         -2.6743    -0.3945     1.9775 C.3          1    LIG   0.0000
  15 C15         -2.6255    -1.8060     2.5382 C.3          1    LIG   0.0000
  16 C16          3.2244     1.5720     2.0394 C.ar         1    LIG   0.0000
  17 C17          4.0288     2.3754     2.8423 C.ar         1    LIG   0.0000
  18 H           -1.8805    -3.6882     1.9230 H            1    LIG   0.0000
  19 H           -1.7262     0.5478     0.3444 H            1    LIG   0.0000
  20 H            1.7299     4.5896     3.7790 H            1    LIG   0.0000
  21 H            0.3563     3.1986     2.3918 H            1    LIG   0.0000
  22 H            1.5544     0.5956     0.2727 H            1    LIG   0.0000
  23 H            0.2727     1.5544     0.5956 H            1    LIG   0.0000
  24 H            1.1126    -0.6600     2.2472 H            1    LIG   0.0000
  25 H           -0.1692     0.2989     2.5701 H            1    LIG   0.0000
  26 H           -3.1124    -3.2809    -0.1497 H            1    LIG   0.0000
  27 H           -3.0379    -1.0225    -0.9846 H            1    LIG   0.0000
  28 H           -3.6141    -0.1559     1.7327 H            1    LIG   0.0000
  29 H           -2.3314     0.2552     2.6560 H            1    LIG   0.0000
  30 H           -2.1723    -1.7878     3.4294 H            1    LIG   0.0000
  31 H           -3.5593    -2.1470     2.6460 H            1    LIG   0.0000
  32 H            3.6151     0.7750     1.5788 H            1    LIG   0.0000
  33 H            4.9981     2.1614     2.9629 H            1    LIG   0.0000
@<TRIPOS>BOND
   1        1        2 1
   2        2        3 ar
   3        3        4 ar
   4        4        5 ar
   5        5        6 1
   6        6        7 1
   7        7        8 1
   8        8        9 1
   9        9       10 1
  10       10       11 1
  11       11       12 2
  12       12       13 1
  13       13        8 1
  14       13       14 1
  15       14       15 1
  16       15       10 1
  17        5       16 ar
  18       16       17 ar
  19       17        2 ar
  20       10       18 1
  21       13       19 1
  22        3       20 1
  23        4       21 1
  24        6       22 1
  25        6       23 1
  26        7       24 1
  27        7       25 1
  28       11       26 1
  29       12       27 1
  30       14       28 1
  31       14       29 1
  32       15       30 1
  33       15       31 1
  34       16       32 1
  35       17       33 1

@<TRIPOS>MOLECULE

  33   35
SMALL
USER_CHARGES
@<TRIPOS>ATOM
   1 Cl1          4.4917     4.5098     4.5030 Cl           1    LIG   0.0000
   2 C2           3.4673     3.4796     3.4749 C.ar         1    LIG   0.0000
   3 C3           2.1210     3.7928     3.3184 C.ar         1    LIG   0.0000
   4 C4           1.3254     2.9841     2.5133 C.ar         1    LIG   0.0000
   5 C5           1.8776     1.8776     1.8776 C.ar         1    LIG   0.0000
   6 C6           1.0000     1.0000     1.0000 C.3          1    LIG   0.0000
   7 C7           0.3852    -0.1056     1.8427 C.3          1    LIG   0.0000
   8 N8          -0.4650    -0.9558     0.9925 N.3          1    LIG   0.0000
   9 O9           0.2687    -1.7354     0.1245 O.3          1    LIG   0.0000
  10 C10         -0.0477    -3.1145     0.1737 C.3          1    LIG   0.0000
  11 C11         -1.5420    -3.2920    -0.0176 C.2          1    LIG   0.0000
  12 C12         -2.2697    -2.5732     0.8065 C.2          1    LIG   0.0000
  13 C13         -1.4465    -1.7373     1.7631 C.3          1    LIG   0.0000
  14 C14         -0.7903    -2.8572     2.5562 C.3          1    LIG   0.0000
  15 C15          0.1186    -3.6142     1.6024 C.3          1    LIG   0.0000
  16 C16          3.2244     1.5720     2.0394 C.ar         1    LIG   0.0000
  17 C17          4.0288     2.3754     2.8423 C.ar         1    LIG   0.0000
  18 H            0.4856    -3.6504    -0.4809 H            1    LIG   0.0000
  19 H           -2.0192    -1.1551     2.3403 H            1    LIG   0.0000
  20 H            1.7299     4.5896     3.7790 H            1    LIG   0.0000
  21 H            0.3563     3.1986     2.3918 H            1    LIG   0.0000
  22 H            1.5544     0.5956     0.2727 H            1    LIG   0.0000
  23 H            0.2727     1.5544     0.5956 H            1    LIG   0.0000
  24 H            1.1126    -0.6600     2.2472 H            1    LIG   0.0000
  25 H           -0.1692     0.2989     2.5701 H            1    LIG   0.0000
  26 H           -1.9364    -3.8996    -0.7069 H            1    LIG   0.0000
  27 H           -3.2697    -2.5778     0.8024 H            1    LIG   0.0000
  28 H           -1.4890    -3.4714     2.9231 H            1    LIG   0.0000
  29 H           -0.2542    -2.4748     3.3088 H            1    LIG   0.0000
  30 H            1.0690    -3.4848     1.8851 H            1    LIG   0.0000
  31 H           -0.1099    -4.5872     1.6367 H            1    LIG   0.0000
  32 H            3.6151     0.7750     1.5788 H            1    LIG   0.0000
  33 H            4.9981     2.1614     2.9629 H            1    LIG   0.0000
@<TRIPOS>BOND
   1        1        2 1
   2        2        3 ar
   3        3        4 ar
   4        4        5 ar
   5        5        6 1
   6        6        7 1
   7        7        8 1
   8        8        9 1
   9        9       10 1
  10       10       11 1
  11       11       12 2
  12       12       13 1
  13       13        8 1
  14       13       14 1
  15       14       15 1
  16       15       10 1
  17        5       16 ar
  18       16       17 ar
  19       17        2 ar
  20       10       18 1
  21       13       19 1
  22        3       20 1
  23        4       21 1
  24        6       22 1
  25        6       23 1
  26        7       24 1
  27        7       25 1
  28       11       26 1
  29       12       27 1
  30       14       28 1
  31       14       29 1
  32       15       30 1
  33       15       31 1
  34       16       32 1
  35       17       33 1

@<TRIPOS>MOLECULE

  33   35
SMALL
USER_CHARGES
@<TRIPOS>ATOM
   1 Cl1          4.4917     4.5098     4.5030 Cl           1    LIG   0.0000
   2 C2           3.4673     3.4796     3.4749 C.ar         1    LIG   0.0000
   3 C3           2.1210     3.7928     3.3184 C.ar         1    LIG   0.0000
   4 C4           1.3254     2.9841     2.5133 C.ar         1    LIG   0.0000
   5 C5           1.8776     1.8776     1.8776 C.ar         1    LIG   0.0000
   6 C6           1.0000     1.0000     1.0000 C.3          1    LIG   0.0000
   7 C7           0.3852    -0.1056     1.8427 C.3          1    LIG   0.0000
   8 N8          -0.4645    -0.9553     0.9930 N.3          1    LIG   0.0000
   9 O9          -1.1976    -0.2115     0.0981 O.3          1    LIG   0.0000
  10 C10         -1.4781    -0.8926    -1.1220 C.3          1    LIG   0.0000
  11 C11         -1.6594    -2.3855    -0.9831 C.2          1    LIG   0.0000
  12 C12         -0.6995    -2.9341    -0.2776 C.2          1    LIG   0.0000
  13 C13          0.3118    -1.9332     0.2154 C.3          1    LIG   0.0000
  14 C14          0.8740    -1.3955    -1.0930 C.3          1    LIG   0.0000
  15 C15         -0.2505    -0.9579    -2.0163 C.3          1    LIG   0.0000
  16 C16          3.2244     1.5720     2.0394 C.ar         1    LIG   0.0000
  17 C17          4.0288     2.3754     2.8423 C.ar         1    LIG   0.0000
  18 H           -2.2521    -0.4766    -1.5993 H            1    LIG   0.0000
  19 H            1.0207    -2.3676     0.7710 H            1    LIG   0.0000
  20 H            1.7299     4.5896     3.7790 H            1    LIG   0.0000
  21 H            0.3563     3.1986     2.3918 H            1    LIG   0.0000
  22 H            1.5544     0.5956     0.2727 H            1    LIG   0.0000
  23 H            0.2727     1.5544     0.5956 H            1    LIG   0.0000
  24 H            1.1126    -0.6600     2.2472 H            1    LIG   0.0000
  25 H           -0.1692     0.2989     2.5701 H            1    LIG   0.0000
  26 H           -2.4215    -2.8956    -1.3820 H            1    LIG   0.0000
  27 H           -0.6449    -3.9143    -0.0870 H            1    LIG   0.0000
  28 H            1.4074    -2.1129    -1.5413 H            1    LIG   0.0000
  29 H            1.4649    -0.6122    -0.8999 H            1    LIG   0.0000
  30 H           -0.0537    -0.0606    -2.4115 H            1    LIG   0.0000
  31 H           -0.3837    -1.6236    -2.7505 H            1    LIG   0.0000
  32 H            3.6151     0.7750     1.5788 H            1    LIG   0.0000
  33 H            4.9981     2.1614     2.9629 H            1    LIG   0.0000
@<TRIPOS>BOND
   1        1        2 1
   2        2        3 ar
   3        3        4 ar
   4        4        5 ar
   5        5        6 1
   6        6        7 1
   7        7        8 1
   8        8        9 1
   9        9       10 1
  10       10       11 1
  11       11       12 2
  12       12       13 1
  13       13        8 1
  14       13       14 1
  15       14       15 1
  16       15       10 1
  17        5       16 ar
  18       16       17 ar
  19       17        2 ar
  20       10       18 1
  21       13       19 1
  22        3       20 1
  23        4       21 1
  24        6       22 1
  25        6       23 1
  26        7       24 1
  27        7       25 1
  28       11       26 1
  29       12       27 1
  30       14       28 1
  31       14       29 1
  32       15       30 1
  33       15       31 1
  34       16       32 1
  35       17       33 1

@<TRIPOS>MOLECULE

  33   35
SMALL
USER_CHARGES
@<TRIPOS>ATOM
   1 Cl1          4.4917     4.5098     4.5030 Cl           1    LIG   0.0000
   2 C2           3.4673     3.4796     3.4749 C.ar         1    LIG   0.0000
   3 C3           2.1210     3.7928     3.3184 C.ar         1    LIG   0.0000
   4 C4           1.3254     2.9841     2.5133 C.ar         1    LIG   0.0000
   5 C5           1.8776     1.8776     1.8776 C.ar         1    LIG   0.0000
   6 C6           1.0000     1.0000     1.0000 C.3          1    LIG   0.0000
   7 C7           0.3852    -0.1056     1.8427 C.3          1    LIG   0.0000
   8 N8          -0.4642    -0.9550     0.9933 N.3          1    LIG   0.0000
   9 O9          -1.4615    -1.5687     1.7089 O.3          1    LIG   0.0000
  10 C10         -1.3653    -2.9901     1.6880 C.3          1    LIG   0.0000
  11 C11         -1.4588    -3.4982     0.2678 C.2          1    LIG   0.0000
  12 C12         -0.5696    -2.9448    -0.5110 C.2          1    LIG   0.0000
  13 C13          0.3028    -1.9420     0.2066 C.3          1    LIG   0.0000
  14 C14          1.0343    -2.9778     1.0442 C.3          1    LIG   0.0000
  15 C15          0.0176    -3.5147     2.0405 C.3          1    LIG   0.0000
  16 C16          3.2244     1.5720     2.0394 C.ar         1    LIG   0.0000
  17 C17          4.0288     2.3754     2.8423 C.ar         1    LIG   0.0000
  18 H           -2.0666    -3.4069     2.2663 H            1    LIG   0.0000
  19 H            0.9268    -1.4881    -0.4295 H            1    LIG   0.0000
  20 H            1.7299     4.5896     3.7790 H            1    LIG   0.0000
  21 H            0.3563     3.1986     2.3918 H            1    LIG   0.0000
  22 H            1.5544     0.5956     0.2727 H            1    LIG   0.0000
  23 H            0.2727     1.5544     0.5956 H            1    LIG   0.0000
  24 H            1.1126    -0.6600     2.2472 H            1    LIG   0.0000
  25 H           -0.1692     0.2989     2.5701 H            1    LIG   0.0000
  26 H           -2.1241    -4.1787    -0.0393 H            1    LIG   0.0000
  27 H           -0.4755    -3.1623    -1.4825 H            1    LIG   0.0000
  28 H            1.8015    -2.5546     1.5261 H            1    LIG   0.0000
  29 H            1.3732    -3.7172     0.4624 H            1    LIG   0.0000
  30 H            0.0134    -4.5141     2.0063 H            1    LIG   0.0000
  31 H            0.2631    -3.2137     2.9619 H            1    LIG   0.0000
  32 H            3.6151     0.7750     1.5788 H            1    LIG   0.0000
  33 H            4.9981     2.1614     2.9629 H            1    LIG   0.0000
@<TRIPOS>BOND
   1        1        2 1
   2        2        3 ar
   3        3        4 ar
   4        4        5 ar
   5        5        6 1
   6        6        7 1
   7        7        8 1
   8        8        9 1
   9        9       10 1
  10       10       11 1
  11       11       12 2
  12       12       13 1
  13       13        8 1
  14       13       14 1
  15       14       15 1
  16       15       10 1
  17        5       16 ar
  18       16       17 ar
  19       17        2 ar
  20       10       18 1
  21       13       19 1
  22        3       20 1
  23        4       21 1
  24        6       22 1
  25        6       23 1
  26        7       24 1
  27        7       25 1
  28       11       26 1
  29       12       27 1
  30       14       28 1
  31       14       29 1
  32       15       30 1
  33       15       31 1
  34       16       32 1
  35       17       33 1

@<TRIPOS>MOLECULE

  33   35
SMALL
USER_CHARGES
@<TRIPOS>ATOM
   1 Cl1          4.4917     4.5098     4.5030 Cl           1    LIG   0.0000
   2 C2           3.4673     3.4796     3.4749 C.ar         1    LIG   0.0000
   3 C3           2.1210     3.7928     3.3184 C.ar         1    LIG   0.0000
   4 C4           1.3254     2.9841     2.5133 C.ar         1    LIG   0.0000
   5 C5           1.8776     1.8776     1.8776 C.ar         1    LIG   0.0000
   6 C6           1.0000     1.0000     1.0000 C.3          1    LIG   0.0000
   7 C7           0.3852    -0.1056     1.8427 C.3          1    LIG   0.0000
   8 N8          -0.4642    -0.9550     0.9933 N.3          1    LIG   0.0000
   9 O9          -1.0779    -0.2394    -0.0040 O.3          1    LIG   0.0000
  10 C10         -2.4993    -0.2603     0.0922 C.3          1    LIG   0.0000
  11 C11         -3.0074    -1.6805    -0.0013 C.2          1    LIG   0.0000
  12 C12         -2.4540    -2.4593     0.8880 C.2          1    LIG   0.0000
  13 C13         -1.4512    -1.7417     1.7603 C.3          1    LIG   0.0000
  14 C14         -2.4870    -0.9041     2.4918 C.3          1    LIG   0.0000
  15 C15         -3.0239     0.0922     1.4751 C.3          1    LIG   0.0000
  16 C16          3.2244     1.5720     2.0394 C.ar         1    LIG   0.0000
  17 C17          4.0288     2.3754     2.8423 C.ar         1    LIG   0.0000
  18 H           -2.9161     0.3180    -0.6091 H            1    LIG   0.0000
  19 H           -0.9973    -2.3778     2.3843 H            1    LIG   0.0000
  20 H            1.7299     4.5896     3.7790 H            1    LIG   0.0000
  21 H            0.3563     3.1986     2.3918 H            1    LIG   0.0000
  22 H            1.5544     0.5956     0.2727 H            1    LIG   0.0000
  23 H            0.2727     1.5544     0.5956 H            1    LIG   0.0000
  24 H            1.1126    -0.6600     2.2472 H            1    LIG   0.0000
  25 H           -0.1692     0.2989     2.5701 H            1    LIG   0.0000
  26 H           -3.6879    -1.9876    -0.6666 H            1    LIG   0.0000
  27 H           -2.6715    -3.4308     0.9820 H            1    LIG   0.0000
  28 H           -2.0638    -0.4222     3.2590 H            1    LIG   0.0000
  29 H           -3.2264    -1.4859     2.8307 H            1    LIG   0.0000
  30 H           -4.0233     0.0580     1.4709 H            1    LIG   0.0000
  31 H           -2.7230     1.0136     1.7206 H            1    LIG   0.0000
  32 H            3.6151     0.7750     1.5788 H            1    LIG   0.0000
  33 H            4.9981     2.1614     2.9629 H            1    LIG   0.0000
@<TRIPOS>BOND
   1        1        2 1
   2        2        3 ar
   3        3        4 ar
   4        4        5 ar
   5        5        6 1
   6        6        7 1
   7        7        8 1
   8        8        9 1
   9        9       10 1
  10       10       11 1
  11       11       12 2
  12       12       13 1
  13       13        8 1
  14       13       14 1
  15       14       15 1
  16       15       10 1
  17        5       16 ar
  18       16       17 ar
  19       17        2 ar
  20       10       18 1
  21       13       19 1
  22        3       20 1
  23        4       21 1
  24        6       22 1
  25        6       23 1
  26        7       24 1
  27        7       25 1
  28       11       26 1
  29       12       27 1
  30       14       28 1
  31       14       29 1
  32       15       30 1
  33       15       31 1
  34       16       32 1
  35       17       33 1

@<TRIPOS>MOLECULE

  33   35
SMALL
USER_CHARGES
@<TRIPOS>ATOM
   1 Cl1          4.4917     4.5098     4.5030 Cl           1    LIG   0.0000
   2 C2           3.4673     3.4796     3.4749 C.ar         1    LIG   0.0000
   3 C3           2.1210     3.7928     3.3184 C.ar         1    LIG   0.0000
   4 C4           1.3254     2.9841     2.5133 C.ar         1    LIG   0.0000
   5 C5           1.8776     1.8776     1.8776 C.ar         1    LIG   0.0000
   6 C6           1.0000     1.0000     1.0000 C.3          1    LIG   0.0000
   7 C7           0.3852    -0.1056     1.8427 C.3          1    LIG   0.0000
   8 N8           0.1674    -1.2963     1.0064 N.3          1    LIG   0.0000
   9 O9           1.2624    -1.5929     0.2342 O.3          1    LIG   0.0000
  10 C10          0.9916    -1.5224    -1.1629 C.3          1    LIG   0.0000
  11 C11         -0.0945    -2.5056    -1.5337 C.2          1    LIG   0.0000
  12 C12         -1.1767    -2.3318    -0.8251 C.2          1    LIG   0.0000
  13 C13         -1.0526    -1.2097     0.1785 C.3          1    LIG   0.0000
  14 C14         -1.0253    -0.1029    -0.8627 C.3          1    LIG   0.0000
  15 C15          0.3054    -0.2341    -1.5886 C.3          1    LIG   0.0000
  16 C16          3.2244     1.5720     2.0394 C.ar         1    LIG   0.0000
  17 C17          4.0288     2.3754     2.8423 C.ar         1    LIG   0.0000
  18 H            1.8206    -1.6827    -1.6988 H            1    LIG   0.0000
  19 H           -1.8710    -1.1460     0.7496 H            1    LIG   0.0000
  20 H            1.7299     4.5896     3.7790 H            1    LIG   0.0000
  21 H            0.3563     3.1986     2.3918 H            1    LIG   0.0000
  22 H            1.5544     0.5956     0.2727 H            1    LIG   0.0000
  23 H            0.2727     1.5544     0.5956 H            1    LIG   0.0000
  24 H            1.0037    -0.3348     2.5944 H            1    LIG   0.0000
  25 H           -0.4896     0.2056     2.2140 H            1    LIG   0.0000
  26 H            0.0044    -3.2072    -2.2394 H            1    LIG   0.0000
  27 H           -2.0028    -2.8844    -0.9352 H            1    LIG   0.0000
  28 H           -1.0916     0.7912    -0.4197 H            1    LIG   0.0000
  29 H           -1.7831    -0.2134    -1.5057 H            1    LIG   0.0000
  30 H            0.1460    -0.2520    -2.5756 H            1    LIG   0.0000
  31 H            0.8883     0.5453    -1.3591 H            1    LIG   0.0000
  32 H            3.6151     0.7750     1.5788 H            1    LIG   0.0000
  33 H            4.9981     2.1614     2.9629 H            1    LIG   0.0000
@<TRIPOS>BOND
   1        1        2 1
   2        2        3 ar
   3        3        4 ar
   4        4        5 ar
   5        5        6 1
   6        6        7 1
   7        7        8 1
   8        8        9 1
   9        9       10 1
  10       10       11 1
  11       11       12 2
  12       12       13 1
  13       13        8 1
  14       13       14 1
  15       14       15 1
  16       15       10 1
  17        5       16 ar
  18       16       17 ar
  19       17        2 ar
  20       10       18 1
  21       13       19 1
  22        3       20 1
  23        4       21 1
  24        6       22 1
  25        6       23 1
  26        7       24 1
  27        7       25 1
  28       11       26 1
  29       12       27 1
  30       14       28 1
  31       14       29 1
  32       15       30 1
  33       15       31 1
  34       16       32 1
  35       17       33 1

@<TRIPOS>MOLECULE

  33   35
SMALL
USER_CHARGES
@<TRIPOS>ATOM
   1 Cl1          4.4922     4.5018     4.5104 Cl           1    LIG   0.0000
   2 C2           3.4676     3.4742     3.4800 C.ar         1    LIG   0.0000
   3 C3           2.2528     3.0077     3.9717 C.ar         1    LIG   0.0000
   4 C4           1.4562     2.2052     3.1616 C.ar         1    LIG   0.0000
   5 C5           1.8776     1.8776     1.8776 C.ar         1    LIG   0.0000
   6 C6           1.0000     1.0000     1.0000 C.3          1    LIG   0.0000
   7 C7           0.3852    -0.1056     1.8427 C.3          1    LIG   0.0000
   8 N8           0.1675    -1.2960     1.0065 N.3          1    LIG   0.0000
   9 O9           0.0905    -2.4100     1.8072 O.3          1    LIG   0.0000
  10 C10         -0.8260    -3.3899     1.3265 C.3          1    LIG   0.0000
  11 C11         -0.8975    -3.4869    -0.1840 C.2          1    LIG   0.0000
  12 C12         -0.9983    -2.3322    -0.7890 C.2          1    LIG   0.0000
  13 C13         -1.0504    -1.1866     0.1932 C.3          1    LIG   0.0000
  14 C14         -2.3250    -1.4923     0.9645 C.3          1    LIG   0.0000
  15 C15         -2.2630    -2.9099     1.5067 C.3          1    LIG   0.0000
  16 C16          3.0933     2.3485     1.3940 C.ar         1    LIG   0.0000
  17 C17          3.8971     3.1526     2.1967 C.ar         1    LIG   0.0000
  18 H           -0.6746    -4.2826     1.7511 H            1    LIG   0.0000
  19 H           -1.1043    -0.3035    -0.2729 H            1    LIG   0.0000
  20 H            1.9559     3.2463     4.8963 H            1    LIG   0.0000
  21 H            0.5803     1.8639     3.5026 H            1    LIG   0.0000
  22 H            1.5544     0.5956     0.2727 H            1    LIG   0.0000
  23 H            0.2727     1.5544     0.5956 H            1    LIG   0.0000
  24 H            1.0037    -0.3348     2.5944 H            1    LIG   0.0000
  25 H           -0.4896     0.2056     2.2140 H            1    LIG   0.0000
  26 H           -0.8701    -4.3576    -0.6750 H            1    LIG   0.0000
  27 H           -1.0362    -2.2213    -1.7821 H            1    LIG   0.0000
  28 H           -3.1127    -1.4031     0.3549 H            1    LIG   0.0000
  29 H           -2.4170    -0.8488     1.7244 H            1    LIG   0.0000
  30 H           -2.5096    -2.9187     2.4758 H            1    LIG   0.0000
  31 H           -2.8893    -3.5006     0.9980 H            1    LIG   0.0000
  32 H            3.3900     2.1095     0.4694 H            1    LIG   0.0000
  33 H            4.7725     3.4948     1.8552 H            1    LIG   0.0000
@<TRIPOS>BOND
   1        1        2 1
   2        2        3 ar
   3        3        4 ar
   4        4        5 ar
   5        5        6 1
   6        6        7 1
   7        7        8 1
   8        8        9 1
   9        9       10 1
  10       10       11 1
  11       11       12 2
  12       12       13 1
  13       13        8 1
  14       13       14 1
  15       14       15 1
  16       15       10 1
  17        5       16 ar
  18       16       17 ar
  19       17        2 ar
  20       10       18 1
  21       13       19 1
  22        3       20 1
  23        4       21 1
  24        6       22 1
  25        6       23 1
  26        7       24 1
  27        7       25 1
  28       11       26 1
  29       12       27 1
  30       14       28 1
  31       14       29 1
  32       15       30 1
  33       15       31 1
  34       16       32 1
  35       17       33 1

@<TRIPOS>MOLECULE

  33   35
SMALL
USER_CHARGES
@<TRIPOS>ATOM
   1 Cl1          4.4922     4.5018     4.5104 Cl           1    LIG   0.0000
   2 C2           3.4676     3.4742     3.4800 C.ar         1    LIG   0.0000
   3 C3           2.2528     3.0077     3.9717 C.ar         1    LIG   0.0000
   4 C4           1.4562     2.2052     3.1616 C.ar         1    LIG   0.0000
   5 C5           1.8776     1.8776     1.8776 C.ar         1    LIG   0.0000
   6 C6           1.0000     1.0000     1.0000 C.3          1    LIG   0.0000
   7 C7           0.3852    -0.1056     1.8427 C.3          1    LIG   0.0000
   8 N8           0.1674    -1.2963     1.0064 N.3          1    LIG   0.0000
   9 O9          -0.8539    -2.0810     1.4802 O.3          1    LIG   0.0000
  10 C10         -0.4222    -3.3853     1.8575 C.3          1    LIG   0.0000
  11 C11          0.1747    -4.1014     0.6681 C.2          1    LIG   0.0000
  12 C12          1.1393    -3.4168     0.1165 C.2          1    LIG   0.0000
  13 C13          1.3930    -2.0947     0.8015 C.3          1    LIG   0.0000
  14 C14          1.9590    -2.7094     2.0708 C.3          1    LIG   0.0000
  15 C15          0.7917    -3.3867     2.7731 C.3          1    LIG   0.0000
  16 C16          3.0933     2.3485     1.3940 C.ar         1    LIG   0.0000
  17 C17          3.8971     3.1526     2.1967 C.ar         1    LIG   0.0000
  18 H           -1.1735    -3.9122     2.2550 H            1    LIG   0.0000
  19 H            2.0895    -1.5661     0.3163 H            1    LIG   0.0000
  20 H            1.9559     3.2463     4.8963 H            1    LIG   0.0000
  21 H            0.5803     1.8639     3.5026 H            1    LIG   0.0000
  22 H            1.5544     0.5956     0.2727 H            1    LIG   0.0000
  23 H            0.2727     1.5544     0.5956 H            1    LIG   0.0000
  24 H            1.0037    -0.3348     2.5944 H            1    LIG   0.0000
  25 H           -0.4896     0.2056     2.2140 H            1    LIG   0.0000
  26 H           -0.1333    -4.9951     0.3419 H            1    LIG   0.0000
  27 H            1.6571    -3.7347    -0.6778 H            1    LIG   0.0000
  28 H            2.3499    -1.9985     2.6556 H            1    LIG   0.0000
  29 H            2.6648    -3.3811     1.8456 H            1    LIG   0.0000
  30 H            1.0391    -4.3295     2.9967 H            1    LIG   0.0000
  31 H            0.5753    -2.8904     3.6138 H            1    LIG   0.0000
  32 H            3.3900     2.1095     0.4694 H            1    LIG   0.0000
  33 H            4.7725     3.4948     1.8552 H            1    LIG   0.0000
@<TRIPOS>BOND
   1        1        2 1
   2        2        3 ar
   3        3        4 ar
   4        4        5 ar
   5        5        6 1
   6        6        7 1
   7        7        8 1
   8        8        9 1
   9        9       10 1
  10       10       11 1
  11       11       12 2
  12       12       13 1
  13       13        8 1
  14       13       14 1
  15       14       15 1
  16       15       10 1
  17        5       16 ar
  18       16       17 ar
  19       17        2 ar
  20       10       18 1
  21       13       19 1
  22        3       20 1
  23        4       21 1
  24        6       22 1
  25        6       23 1
  26        7       24 1
  27        7       25 1
  28       11       26 1
  29       12       27 1
  30       14       28 1
  31       14       29 1
  32       15       30 1
  33       15       31 1
  34       16       32 1
  35       17       33 1

@<TRIPOS>MOLECULE

  33   35
SMALL
USER_CHARGES
@<TRIPOS>ATOM
   1 Cl1          4.4922     4.5018     4.5104 Cl           1    LIG   0.0000
   2 C2           3.4676     3.4742     3.4800 C.ar         1    LIG   0.0000
   3 C3           2.2528     3.0077     3.9717 C.ar         1    LIG   0.0000
   4 C4           1.4562     2.2052     3.1616 C.ar         1    LIG   0.0000
   5 C5           1.8776     1.8776     1.8776 C.ar         1    LIG   0.0000
   6 C6           1.0000     1.0000     1.0000 C.3          1    LIG   0.0000
   7 C7           0.3852    -0.1056     1.8427 C.3          1    LIG   0.0000
   8 N8          -0.9214    -0.4817     1.2807 N.3          1    LIG   0.0000
   9 O9          -0.7822    -1.3082     0.1938 O.3          1    LIG   0.0000
  10 C10         -1.8981    -2.1779     0.0171 C.3          1    LIG   0.0000
  11 C11         -3.2184    -1.6161     0.4918 C.2          1    LIG   0.0000
  12 C12         -3.1476    -1.0822     1.6826 C.2          1    LIG   0.0000
  13 C13         -1.7595    -1.1743     2.2699 C.3          1    LIG   0.0000
  14 C14         -1.5354    -2.6788     2.3277 C.3          1    LIG   0.0000
  15 C15         -1.8964    -3.3261     1.0041 C.3          1    LIG   0.0000
  16 C16          3.0933     2.3485     1.3940 C.ar         1    LIG   0.0000
  17 C17          3.8971     3.1526     2.1967 C.ar         1    LIG   0.0000
  18 H           -1.9590    -2.5068    -0.9253 H            1    LIG   0.0000
  19 H           -1.7039    -0.7500     3.1738 H            1    LIG   0.0000
  20 H            1.9559     3.2463     4.8963 H            1    LIG   0.0000
  21 H            0.5803     1.8639     3.5026 H            1    LIG   0.0000
  22 H            1.5544     0.5956     0.2727 H            1    LIG   0.0000
  23 H            0.2727     1.5544     0.5956 H            1    LIG   0.0000
  24 H            0.9905    -0.9016     1.8411 H            1    LIG   0.0000
  25 H            0.2636     0.2188     2.7808 H            1    LIG   0.0000
  26 H           -4.0589    -1.6495    -0.0491 H            1    LIG   0.0000
  27 H           -3.9240    -0.6608     2.1513 H            1    LIG   0.0000
  28 H           -2.1067    -3.0682     3.0502 H            1    LIG   0.0000
  29 H           -0.5729    -2.8598     2.5299 H            1    LIG   0.0000
  30 H           -1.2161    -4.0128     0.7480 H            1    LIG   0.0000
  31 H           -2.7992    -3.7533     1.0528 H            1    LIG   0.0000
  32 H            3.3900     2.1095     0.4694 H            1    LIG   0.0000
  33 H            4.7725     3.4948     1.8552 H            1    LIG   0.0000
@<TRIPOS>BOND
   1        1        2 1
   2        2        3 ar
   3        3        4 ar
   4        4        5 ar
   5        5        6 1
   6        6        7 1
   7        7        8 1
   8        8        9 1
   9        9       10 1
  10       10       11 1
  11       11       12 2
  12       12       13 1
  13       13        8 1
  14       13       14 1
  15       14       15 1
  16       15       10 1
  17        5       16 ar
  18       16       17 ar
  19       17        2 ar
  20       10       18 1
  21       13       19 1
  22        3       20 1
  23        4       21 1
  24        6       22 1
  25        6       23 1
  26        7       24 1
  27        7       25 1
  28       11       26 1
  29       12       27 1
  30       14       28 1
  31       14       29 1
  32       15       30 1
  33       15       31 1
  34       16       32 1
  35       17       33 1

@<TRIPOS>MOLECULE

  33   35
SMALL
USER_CHARGES
@<TRIPOS>ATOM
   1 Cl1          4.4982     4.5118     4.4945 Cl           1    LIG   0.0000
   2 C2           3.4717     3.4809     3.4692 C.ar         1    LIG   0.0000
   3 C3           2.6724     4.0669     2.4929 C.ar         1    LIG   0.0000
   4 C4           1.8726     3.2560     1.6943 C.ar         1    LIG   0.0000
   5 C5           1.8776     1.8776     1.8776 C.ar         1    LIG   0.0000
   6 C6           1.0000     1.0000     1.0000 C.3          1    LIG   0.0000
   7 C7           0.3852    -0.1056     1.8427 C.3          1    LIG   0.0000
   8 N8           0.1672    -1.2973     1.0056 N.3          1    LIG   0.0000
   9 O9           1.1024    -1.4140     0.0000 O.3          1    LIG   0.0000
  10 C10          1.7489    -2.6727    -0.0486 C.3          1    LIG   0.0000
  11 C11          0.7033    -3.7702    -0.1060 C.2          1    LIG   0.0000
  12 C12         -0.1945    -3.6958     0.8498 C.2          1    LIG   0.0000
  13 C13          0.0266    -2.5331     1.7937 C.3          1    LIG   0.0000
  14 C14          1.3463    -2.9722     2.4096 C.3          1    LIG   0.0000
  15 C15          2.3882    -2.9581     1.3036 C.3          1    LIG   0.0000
  16 C16          2.6799     1.3003     2.8557 C.ar         1    LIG   0.0000
  17 C17          3.4841     2.1031     3.6592 C.ar         1    LIG   0.0000
  18 H            2.4058    -2.7338    -0.8000 H            1    LIG   0.0000
  19 H           -0.7003    -2.4614     2.4767 H            1    LIG   0.0000
  20 H            2.6729     5.0589     2.3668 H            1    LIG   0.0000
  21 H            1.2940     3.6643     0.9884 H            1    LIG   0.0000
  22 H            1.5544     0.5956     0.2727 H            1    LIG   0.0000
  23 H            0.2727     1.5544     0.5956 H            1    LIG   0.0000
  24 H            1.0037    -0.3348     2.5944 H            1    LIG   0.0000
  25 H           -0.4896     0.2056     2.2140 H            1    LIG   0.0000
  26 H            0.6980    -4.4839    -0.8064 H            1    LIG   0.0000
  27 H           -0.9502    -4.3438     0.9447 H            1    LIG   0.0000
  28 H            1.2584    -3.8948     2.7852 H            1    LIG   0.0000
  29 H            1.6113    -2.3398     3.1375 H            1    LIG   0.0000
  30 H            3.0646    -2.2486     1.5013 H            1    LIG   0.0000
  31 H            2.8403    -3.8494     1.2695 H            1    LIG   0.0000
  32 H            2.6790     0.3082     2.9817 H            1    LIG   0.0000
  33 H            4.0636     1.6945     4.3644 H            1    LIG   0.0000
@<TRIPOS>BOND
   1        1        2 1
   2        2        3 ar
   3        3        4 ar
   4        4        5 ar
   5        5        6 1
   6        6        7 1
   7        7        8 1
   8        8        9 1
   9        9       10 1
  10       10       11 1
  11       11       12 2
  12       12       13 1
  13       13        8 1
  14       13       14 1
  15       14       15 1
  16       15       10 1
  17        5       16 ar
  18       16       17 ar
  19       17        2 ar
  20       10       18 1
  21       13       19 1
  22        3       20 1
  23        4       21 1
  24        6       22 1
  25        6       23 1
  26        7       24 1
  27        7       25 1
  28       11       26 1
  29       12       27 1
  30       14       28 1
  31       14       29 1
  32       15       30 1
  33       15       31 1
  34       16       32 1
  35       17       33 1

@<TRIPOS>MOLECULE

  33   35
SMALL
USER_CHARGES
@<TRIPOS>ATOM
   1 Cl1          4.4982     4.5118     4.4945 Cl           1    LIG   0.0000
   2 C2           3.4717     3.4809     3.4692 C.ar         1    LIG   0.0000
   3 C3           2.6724     4.0669     2.4929 C.ar         1    LIG   0.0000
   4 C4           1.8726     3.2560     1.6943 C.ar         1    LIG   0.0000
   5 C5           1.8776     1.8776     1.8776 C.ar         1    LIG   0.0000
   6 C6           1.0000     1.0000     1.0000 C.3          1    LIG   0.0000
   7 C7           0.3852    -0.1056     1.8427 C.3          1    LIG   0.0000
   8 N8          -0.9226    -0.4821     1.2801 N.3          1    LIG   0.0000
   9 O9          -1.7211     0.6115     1.0234 O.3          1    LIG   0.0000
  10 C10         -2.2377     0.6568    -0.2940 C.3          1    LIG   0.0000
  11 C11         -2.9399    -0.6523    -0.6012 C.2          1    LIG   0.0000
  12 C12         -2.1988    -1.7142    -0.3814 C.2          1    LIG   0.0000
  13 C13         -0.8098    -1.3847     0.1223 C.3          1    LIG   0.0000
  14 C14         -0.2715    -0.6715    -1.1087 C.3          1    LIG   0.0000
  15 C15         -1.0832     0.6008    -1.2852 C.3          1    LIG   0.0000
  16 C16          2.6799     1.3003     2.8557 C.ar         1    LIG   0.0000
  17 C17          3.4841     2.1031     3.6592 C.ar         1    LIG   0.0000
  18 H           -2.8289     1.4494    -0.4434 H            1    LIG   0.0000
  19 H           -0.2845    -2.2076     0.3384 H            1    LIG   0.0000
  20 H            2.6729     5.0589     2.3668 H            1    LIG   0.0000
  21 H            1.2940     3.6643     0.9884 H            1    LIG   0.0000
  22 H            1.5544     0.5956     0.2727 H            1    LIG   0.0000
  23 H            0.2727     1.5544     0.5956 H            1    LIG   0.0000
  24 H            0.9905    -0.9016     1.8411 H            1    LIG   0.0000
  25 H            0.2636     0.2188     2.7808 H            1    LIG   0.0000
  26 H           -3.8796    -0.7022    -0.9395 H            1    LIG   0.0000
  27 H           -2.5206    -2.6489    -0.5322 H            1    LIG   0.0000
  28 H           -0.3718    -1.2559    -1.9139 H            1    LIG   0.0000
  29 H            0.6941    -0.4461    -0.9787 H            1    LIG   0.0000
  30 H           -0.4880     1.3909    -1.1383 H            1    LIG   0.0000
  31 H           -1.4497     0.6280    -2.2153 H            1    LIG   0.0000
  32 H            2.6790     0.3082     2.9817 H            1    LIG   0.0000
  33 H            4.0636     1.6945     4.3644 H            1    LIG   0.0000
@<TRIPOS>BOND
   1        1        2 1
   2        2        3 ar
   3        3        4 ar
   4        4        5 ar
   5        5        6 1
   6        6        7 1
   7        7        8 1
   8        8        9 1
   9        9       10 1
  10       10       11 1
  11       11       12 2
  12       12       13 1
  13       13        8 1
  14       13       14 1
  15       14       15 1
  16       15       10 1
  17        5       16 ar
  18       16       17 ar
  19       17        2 ar
  20       10       18 1
  21       13       19 1
  22        3       20 1
  23        4       21 1
  24        6       22 1
  25        6       23 1
  26        7       24 1
  27        7       25 1
  28       11       26 1
  29       12       27 1
  30       14       28 1
  31       14       29 1
  32       15       30 1
  33       15       31 1
  34       16       32 1
  35       17       33 1

@<TRIPOS>MOLECULE

  33   35
SMALL
USER_CHARGES
@<TRIPOS>ATOM
   1 Cl1          4.4982     4.5118     4.4945 Cl           1    LIG   0.0000
   2 C2           3.4717     3.4809     3.4692 C.ar         1    LIG   0.0000
   3 C3           2.6724     4.0669     2.4929 C.ar         1    LIG   0.0000
   4 C4           1.8726     3.2560     1.6943 C.ar         1    LIG   0.0000
   5 C5           1.8776     1.8776     1.8776 C.ar         1    LIG   0.0000
   6 C6           1.0000     1.0000     1.0000 C.3          1    LIG   0.0000
   7 C7           0.3852    -0.1056     1.8427 C.3          1    LIG   0.0000
   8 N8          -0.9211    -0.4817     1.2808 N.3          1    LIG   0.0000
   9 O9          -0.7328    -1.2852     0.1823 O.3          1    LIG   0.0000
  10 C10         -1.7347    -2.2882     0.0365 C.3          1    LIG   0.0000
  11 C11         -3.1174    -1.8554     0.4804 C.2          1    LIG   0.0000
  12 C12         -3.1417    -1.2537     1.6409 C.2          1    LIG   0.0000
  13 C13         -1.7672    -1.1745     2.2609 C.3          1    LIG   0.0000
  14 C14         -1.4162    -2.6442     2.4346 C.3          1    LIG   0.0000
  15 C15         -1.5719    -3.3640     1.1060 C.3          1    LIG   0.0000
  16 C16          2.6799     1.3003     2.8557 C.ar         1    LIG   0.0000
  17 C17          3.4841     2.1031     3.6592 C.ar         1    LIG   0.0000
  18 H           -1.7430    -2.6763    -0.8851 H            1    LIG   0.0000
  19 H           -1.7853    -0.6937     3.1376 H            1    LIG   0.0000
  20 H            2.6729     5.0589     2.3668 H            1    LIG   0.0000
  21 H            1.2940     3.6643     0.9884 H            1    LIG   0.0000
  22 H            1.5544     0.5956     0.2727 H            1    LIG   0.0000
  23 H            0.2727     1.5544     0.5956 H            1    LIG   0.0000
  24 H            0.9905    -0.9016     1.8411 H            1    LIG   0.0000
  25 H            0.2636     0.2188     2.7808 H            1    LIG   0.0000
  26 H           -3.9392    -2.0160    -0.0663 H            1    LIG   0.0000
  27 H           -3.9703    -0.8900     2.0664 H            1    LIG   0.0000
  28 H           -2.0285    -3.0553     3.1099 H            1    LIG   0.0000
  29 H           -0.4704    -2.7258     2.7489 H            1    LIG   0.0000
  30 H           -0.7603    -3.9169     0.9172 H            1    LIG   0.0000
  31 H           -2.3794    -3.9535     1.1267 H            1    LIG   0.0000
  32 H            2.6790     0.3082     2.9817 H            1    LIG   0.0000
  33 H            4.0636     1.6945     4.3644 H            1    LIG   0.0000
@<TRIPOS>BOND
   1        1        2 1
   2        2        3 ar
   3        3        4 ar
   4        4        5 ar
   5        5        6 1
   6        6        7 1
   7        7        8 1
   8        8        9 1
   9        9       10 1
  10       10       11 1
  11       11       12 2
  12       12       13 1
  13       13        8 1
  14       13       14 1
  15       14       15 1
  16       15       10 1
  17        5       16 ar
  18       16       17 ar
  19       17        2 ar
  20       10       18 1
  21       13       19 1
  22        3       20 1
  23        4       21 1
  24        6       22 1
  25        6       23 1
  26        7       24 1
  27        7       25 1
  28       11       26 1
  29       12       27 1
  30       14       28 1
  31       14       29 1
  32       15       30 1
  33       15       31 1
  34       16       32 1
  35       17       33 1

@<TRIPOS>MOLECULE

  33   35
SMALL
USER_CHARGES
@<TRIPOS>ATOM
   1 Cl1          4.4982     4.5118     4.4945 Cl           1    LIG   0.0000
   2 C2           3.4717     3.4809     3.4692 C.ar         1    LIG   0.0000
   3 C3           2.6724     4.0669     2.4929 C.ar         1    LIG   0.0000
   4 C4           1.8726     3.2560     1.6943 C.ar         1    LIG   0.0000
   5 C5           1.8776     1.8776     1.8776 C.ar         1    LIG   0.0000
   6 C6           1.0000     1.0000     1.0000 C.3          1    LIG   0.0000
   7 C7           0.3852    -0.1056     1.8427 C.3          1    LIG   0.0000
   8 N8          -0.9214    -0.4817     1.2807 N.3          1    LIG   0.0000
   9 O9          -1.5725     0.5902     0.7236 O.3          1    LIG   0.0000
  10 C10         -2.8091     0.8840     1.3674 C.3          1    LIG   0.0000
  11 C11         -3.7411    -0.3018     1.2721 C.2          1    LIG   0.0000
  12 C12         -3.1996    -1.3909     1.7456 C.2          1    LIG   0.0000
  13 C13         -1.7910    -1.1807     2.2485 C.3          1    LIG   0.0000
  14 C14         -2.2014    -0.3370     3.4441 C.3          1    LIG   0.0000
  15 C15         -2.7020     0.9846     2.8807 C.3          1    LIG   0.0000
  16 C16          2.6799     1.3003     2.8557 C.ar         1    LIG   0.0000
  17 C17          3.4841     2.1031     3.6592 C.ar         1    LIG   0.0000
  18 H           -3.2301     1.7047     0.9810 H            1    LIG   0.0000
  19 H           -1.3812    -2.0445     2.5417 H            1    LIG   0.0000
  20 H            2.6729     5.0589     2.3668 H            1    LIG   0.0000
  21 H            1.2940     3.6643     0.9884 H            1    LIG   0.0000
  22 H            1.5544     0.5956     0.2727 H            1    LIG   0.0000
  23 H            0.2727     1.5544     0.5956 H            1    LIG   0.0000
  24 H            0.9905    -0.9016     1.8411 H            1    LIG   0.0000
  25 H            0.2636     0.2188     2.7808 H            1    LIG   0.0000
  26 H           -4.6645    -0.2572     0.8909 H            1    LIG   0.0000
  27 H           -3.6690    -2.2735     1.7726 H            1    LIG   0.0000
  28 H           -1.4171    -0.1827     4.0449 H            1    LIG   0.0000
  29 H           -2.9291    -0.7930     3.9565 H            1    LIG   0.0000
  30 H           -3.6016     1.1913     3.2654 H            1    LIG   0.0000
  31 H           -2.0610     1.7135     3.1216 H            1    LIG   0.0000
  32 H            2.6790     0.3082     2.9817 H            1    LIG   0.0000
  33 H            4.0636     1.6945     4.3644 H            1    LIG   0.0000
@<TRIPOS>BOND
   1        1        2 1
   2        2        3 ar
   3        3        4 ar
   4        4        5 ar
   5        5        6 1
   6        6        7 1
   7        7        8 1
   8        8        9 1
   9        9       10 1
  10       10       11 1
  11       11       12 2
  12       12       13 1
  13       13        8 1
  14       13       14 1
  15       14       15 1
  16       15       10 1
  17        5       16 ar
  18       16       17 ar
  19       17        2 ar
  20       10       18 1
  21       13       19 1
  22        3       20 1
  23        4       21 1
  24        6       22 1
  25        6       23 1
  26        7       24 1
  27        7       25 1
  28       11       26 1
  29       12       27 1
  30       14       28 1
  31       14       29 1
  32       15       30 1
  33       15       31 1
  34       16       32 1
  35       17       33 1

