@<TRIPOS>MOLECULE
*****
 33 35 0 0 0
SMALL
USER_CHARGES

@<TRIPOS>ATOM
      1 Cl1         4.4922    4.5018    4.5104 Cl      1  LIG1        0.0000
      2 C2          3.4676    3.4742    3.4800 C.ar    1  LIG1        0.0000
      3 C3          2.2528    3.0077    3.9717 C.ar    1  LIG1        0.0000
      4 C4          1.4562    2.2052    3.1616 C.ar    1  LIG1        0.0000
      5 C5          1.8776    1.8776    1.8776 C.ar    1  LIG1        0.0000
      6 C6          1.0000    1.0000    1.0000 C.3     1  LIG1        0.0000
      7 C7          0.3852   -0.1056    1.8427 C.3     1  LIG1        0.0000
      8 N8          0.1674   -1.2963    1.0064 N.3     1  LIG1        0.0000
      9 O9         -0.8539   -2.0810    1.4802 O.3     1  LIG1        0.0000
     10 C10        -0.4222   -3.3853    1.8575 C.3     1  LIG1        0.0000
     11 C11         0.1747   -4.1014    0.6681 C.2     1  LIG1        0.0000
     12 C12         1.1393   -3.4168    0.1165 C.2     1  LIG1        0.0000
     13 C13         1.3930   -2.0947    0.8015 C.3     1  LIG1        0.0000
     14 C14         1.9590   -2.7094    2.0708 C.3     1  LIG1        0.0000
     15 C15         0.7917   -3.3867    2.7731 C.3     1  LIG1        0.0000
     16 C16         3.0933    2.3485    1.3940 C.ar    1  LIG1        0.0000
     17 C17         3.8971    3.1526    2.1967 C.ar    1  LIG1        0.0000
     18 H          -1.1735   -3.9122    2.2550 H       1  LIG1        0.0000
     19 H           2.0895   -1.5661    0.3163 H       1  LIG1        0.0000
     20 H           1.9559    3.2463    4.8963 H       1  LIG1        0.0000
     21 H           0.5803    1.8639    3.5026 H       1  LIG1        0.0000
     22 H           1.5544    0.5956    0.2727 H       1  LIG1        0.0000
     23 H           0.2727    1.5544    0.5956 H       1  LIG1        0.0000
     24 H           1.0037   -0.3348    2.5944 H       1  LIG1        0.0000
     25 H          -0.4896    0.2056    2.2140 H       1  LIG1        0.0000
     26 H          -0.1333   -4.9951    0.3419 H       1  LIG1        0.0000
     27 H           1.6571   -3.7347   -0.6778 H       1  LIG1        0.0000
     28 H           2.3499   -1.9985    2.6556 H       1  LIG1        0.0000
     29 H           2.6648   -3.3811    1.8456 H       1  LIG1        0.0000
     30 H           1.0391   -4.3295    2.9967 H       1  LIG1        0.0000
     31 H           0.5753   -2.8904    3.6138 H       1  LIG1        0.0000
     32 H           3.3900    2.1095    0.4694 H       1  LIG1        0.0000
     33 H           4.7725    3.4948    1.8552 H       1  LIG1        0.0000
@<TRIPOS>BOND
     1     1     2    1
     2     2     3   ar
     3     3     4   ar
     4     4     5   ar
     5     5     6    1
     6     6     7    1
     7     7     8    1
     8     8     9    1
     9     9    10    1
    10    10    11    1
    11    11    12    2
    12    12    13    1
    13    13     8    1
    14    13    14    1
    15    14    15    1
    16    15    10    1
    17     5    16   ar
    18    16    17   ar
    19    17     2   ar
    20    10    18    1
    21    13    19    1
    22     3    20    1
    23     4    21    1
    24     6    22    1
    25     6    23    1
    26     7    24    1
    27     7    25    1
    28    11    26    1
    29    12    27    1
    30    14    28    1
    31    14    29    1
    32    15    30    1
    33    15    31    1
    34    16    32    1
    35    17    33    1
