@<TRIPOS>MOLECULE
*****
 33 35 0 0 0
SMALL
USER_CHARGES

@<TRIPOS>ATOM
      1 Cl1         4.4917    4.5098    4.5030 Cl      1  LIG1        0.0000
      2 C2          3.4673    3.4796    3.4749 C.ar    1  LIG1        0.0000
      3 C3          2.1210    3.7928    3.3184 C.ar    1  LIG1        0.0000
      4 C4          1.3254    2.9841    2.5133 C.ar    1  LIG1        0.0000
      5 C5          1.8776    1.8776    1.8776 C.ar    1  LIG1        0.0000
      6 C6          1.0000    1.0000    1.0000 C.3     1  LIG1        0.0000
      7 C7          0.3852   -0.1056    1.8427 C.3     1  LIG1        0.0000
      8 N8         -0.4645   -0.9553    0.9930 N.3     1  LIG1        0.0000
      9 O9         -1.1976   -0.2115    0.0981 O.3     1  LIG1        0.0000
     10 C10        -1.4781   -0.8926   -1.1220 C.3     1  LIG1        0.0000
     11 C11        -1.6594   -2.3855   -0.9831 C.2     1  LIG1        0.0000
     12 C12        -0.6995   -2.9341   -0.2776 C.2     1  LIG1        0.0000
     13 C13         0.3118   -1.9332    0.2154 C.3     1  LIG1        0.0000
     14 C14         0.8740   -1.3955   -1.0930 C.3     1  LIG1        0.0000
     15 C15        -0.2505   -0.9579   -2.0163 C.3     1  LIG1        0.0000
     16 C16         3.2244    1.5720    2.0394 C.ar    1  LIG1        0.0000
     17 C17         4.0288    2.3754    2.8423 C.ar    1  LIG1        0.0000
     18 H          -2.2521   -0.4766   -1.5993 H       1  LIG1        0.0000
     19 H           1.0207   -2.3676    0.7710 H       1  LIG1        0.0000
     20 H           1.7299    4.5896    3.7790 H       1  LIG1        0.0000
     21 H           0.3563    3.1986    2.3918 H       1  LIG1        0.0000
     22 H           1.5544    0.5956    0.2727 H       1  LIG1        0.0000
     23 H           0.2727    1.5544    0.5956 H       1  LIG1        0.0000
     24 H           1.1126   -0.6600    2.2472 H       1  LIG1        0.0000
     25 H          -0.1692    0.2989    2.5701 H       1  LIG1        0.0000
     26 H          -2.4215   -2.8956   -1.3820 H       1  LIG1        0.0000
     27 H          -0.6449   -3.9143   -0.0870 H       1  LIG1        0.0000
     28 H           1.4074   -2.1129   -1.5413 H       1  LIG1        0.0000
     29 H           1.4649   -0.6122   -0.8999 H       1  LIG1        0.0000
     30 H          -0.0537   -0.0606   -2.4115 H       1  LIG1        0.0000
     31 H          -0.3837   -1.6236   -2.7505 H       1  LIG1        0.0000
     32 H           3.6151    0.7750    1.5788 H       1  LIG1        0.0000
     33 H           4.9981    2.1614    2.9629 H       1  LIG1        0.0000
@<TRIPOS>BOND
     1     1     2    1
     2     2     3   ar
     3     3     4   ar
     4     4     5   ar
     5     5     6    1
     6     6     7    1
     7     7     8    1
     8     8     9    1
     9     9    10    1
    10    10    11    1
    11    11    12    2
    12    12    13    1
    13    13     8    1
    14    13    14    1
    15    14    15    1
    16    15    10    1
    17     5    16   ar
    18    16    17   ar
    19    17     2   ar
    20    10    18    1
    21    13    19    1
    22     3    20    1
    23     4    21    1
    24     6    22    1
    25     6    23    1
    26     7    24    1
    27     7    25    1
    28    11    26    1
    29    12    27    1
    30    14    28    1
    31    14    29    1
    32    15    30    1
    33    15    31    1
    34    16    32    1
    35    17    33    1
