@<TRIPOS>MOLECULE
*****
 33 35 0 0 0
SMALL
USER_CHARGES

@<TRIPOS>ATOM
      1 Cl1         4.4982    4.5118    4.4945 Cl      1  LIG1        0.0000
      2 C2          3.4717    3.4809    3.4692 C.ar    1  LIG1        0.0000
      3 C3          2.6724    4.0669    2.4929 C.ar    1  LIG1        0.0000
      4 C4          1.8726    3.2560    1.6943 C.ar    1  LIG1        0.0000
      5 C5          1.8776    1.8776    1.8776 C.ar    1  LIG1        0.0000
      6 C6          1.0000    1.0000    1.0000 C.3     1  LIG1        0.0000
      7 C7          0.3852   -0.1056    1.8427 C.3     1  LIG1        0.0000
      8 N8         -0.9211   -0.4817    1.2808 N.3     1  LIG1        0.0000
      9 O9         -0.7328   -1.2852    0.1823 O.3     1  LIG1        0.0000
     10 C10        -1.7347   -2.2882    0.0365 C.3     1  LIG1        0.0000
     11 C11        -3.1174   -1.8554    0.4804 C.2     1  LIG1        0.0000
     12 C12        -3.1417   -1.2537    1.6409 C.2     1  LIG1        0.0000
     13 C13        -1.7672   -1.1745    2.2609 C.3     1  LIG1        0.0000
     14 C14        -1.4162   -2.6442    2.4346 C.3     1  LIG1        0.0000
     15 C15        -1.5719   -3.3640    1.1060 C.3     1  LIG1        0.0000
     16 C16         2.6799    1.3003    2.8557 C.ar    1  LIG1        0.0000
     17 C17         3.4841    2.1031    3.6592 C.ar    1  LIG1        0.0000
     18 H          -1.7430   -2.6763   -0.8851 H       1  LIG1        0.0000
     19 H          -1.7853   -0.6937    3.1376 H       1  LIG1        0.0000
     20 H           2.6729    5.0589    2.3668 H       1  LIG1        0.0000
     21 H           1.2940    3.6643    0.9884 H       1  LIG1        0.0000
     22 H           1.5544    0.5956    0.2727 H       1  LIG1        0.0000
     23 H           0.2727    1.5544    0.5956 H       1  LIG1        0.0000
     24 H           0.9905   -0.9016    1.8411 H       1  LIG1        0.0000
     25 H           0.2636    0.2188    2.7808 H       1  LIG1        0.0000
     26 H          -3.9392   -2.0160   -0.0663 H       1  LIG1        0.0000
     27 H          -3.9703   -0.8900    2.0664 H       1  LIG1        0.0000
     28 H          -2.0285   -3.0553    3.1099 H       1  LIG1        0.0000
     29 H          -0.4704   -2.7258    2.7489 H       1  LIG1        0.0000
     30 H          -0.7603   -3.9169    0.9172 H       1  LIG1        0.0000
     31 H          -2.3794   -3.9535    1.1267 H       1  LIG1        0.0000
     32 H           2.6790    0.3082    2.9817 H       1  LIG1        0.0000
     33 H           4.0636    1.6945    4.3644 H       1  LIG1        0.0000
@<TRIPOS>BOND
     1     1     2    1
     2     2     3   ar
     3     3     4   ar
     4     4     5   ar
     5     5     6    1
     6     6     7    1
     7     7     8    1
     8     8     9    1
     9     9    10    1
    10    10    11    1
    11    11    12    2
    12    12    13    1
    13    13     8    1
    14    13    14    1
    15    14    15    1
    16    15    10    1
    17     5    16   ar
    18    16    17   ar
    19    17     2   ar
    20    10    18    1
    21    13    19    1
    22     3    20    1
    23     4    21    1
    24     6    22    1
    25     6    23    1
    26     7    24    1
    27     7    25    1
    28    11    26    1
    29    12    27    1
    30    14    28    1
    31    14    29    1
    32    15    30    1
    33    15    31    1
    34    16    32    1
    35    17    33    1
