@<TRIPOS>MOLECULE
*****
 33 35 0 0 0
SMALL
USER_CHARGES

@<TRIPOS>ATOM
      1 Cl1         4.4982    4.5118    4.4945 Cl      1  LIG1        0.0000
      2 C2          3.4717    3.4809    3.4692 C.ar    1  LIG1        0.0000
      3 C3          2.6724    4.0669    2.4929 C.ar    1  LIG1        0.0000
      4 C4          1.8726    3.2560    1.6943 C.ar    1  LIG1        0.0000
      5 C5          1.8776    1.8776    1.8776 C.ar    1  LIG1        0.0000
      6 C6          1.0000    1.0000    1.0000 C.3     1  LIG1        0.0000
      7 C7          0.3852   -0.1056    1.8427 C.3     1  LIG1        0.0000
      8 N8         -0.9214   -0.4817    1.2807 N.3     1  LIG1        0.0000
      9 O9         -1.5725    0.5902    0.7236 O.3     1  LIG1        0.0000
     10 C10        -2.8091    0.8840    1.3674 C.3     1  LIG1        0.0000
     11 C11        -3.7411   -0.3018    1.2721 C.2     1  LIG1        0.0000
     12 C12        -3.1996   -1.3909    1.7456 C.2     1  LIG1        0.0000
     13 C13        -1.7910   -1.1807    2.2485 C.3     1  LIG1        0.0000
     14 C14        -2.2014   -0.3370    3.4441 C.3     1  LIG1        0.0000
     15 C15        -2.7020    0.9846    2.8807 C.3     1  LIG1        0.0000
     16 C16         2.6799    1.3003    2.8557 C.ar    1  LIG1        0.0000
     17 C17         3.4841    2.1031    3.6592 C.ar    1  LIG1        0.0000
     18 H          -3.2301    1.7047    0.9810 H       1  LIG1        0.0000
     19 H          -1.3812   -2.0445    2.5417 H       1  LIG1        0.0000
     20 H           2.6729    5.0589    2.3668 H       1  LIG1        0.0000
     21 H           1.2940    3.6643    0.9884 H       1  LIG1        0.0000
     22 H           1.5544    0.5956    0.2727 H       1  LIG1        0.0000
     23 H           0.2727    1.5544    0.5956 H       1  LIG1        0.0000
     24 H           0.9905   -0.9016    1.8411 H       1  LIG1        0.0000
     25 H           0.2636    0.2188    2.7808 H       1  LIG1        0.0000
     26 H          -4.6645   -0.2572    0.8909 H       1  LIG1        0.0000
     27 H          -3.6690   -2.2735    1.7726 H       1  LIG1        0.0000
     28 H          -1.4171   -0.1827    4.0449 H       1  LIG1        0.0000
     29 H          -2.9291   -0.7930    3.9565 H       1  LIG1        0.0000
     30 H          -3.6016    1.1913    3.2654 H       1  LIG1        0.0000
     31 H          -2.0610    1.7135    3.1216 H       1  LIG1        0.0000
     32 H           2.6790    0.3082    2.9817 H       1  LIG1        0.0000
     33 H           4.0636    1.6945    4.3644 H       1  LIG1        0.0000
@<TRIPOS>BOND
     1     1     2    1
     2     2     3   ar
     3     3     4   ar
     4     4     5   ar
     5     5     6    1
     6     6     7    1
     7     7     8    1
     8     8     9    1
     9     9    10    1
    10    10    11    1
    11    11    12    2
    12    12    13    1
    13    13     8    1
    14    13    14    1
    15    14    15    1
    16    15    10    1
    17     5    16   ar
    18    16    17   ar
    19    17     2   ar
    20    10    18    1
    21    13    19    1
    22     3    20    1
    23     4    21    1
    24     6    22    1
    25     6    23    1
    26     7    24    1
    27     7    25    1
    28    11    26    1
    29    12    27    1
    30    14    28    1
    31    14    29    1
    32    15    30    1
    33    15    31    1
    34    16    32    1
    35    17    33    1
