@<TRIPOS>MOLECULE

  50   55
SMALL
USER_CHARGES
@<TRIPOS>ATOM
   1 C1          -3.3741    -5.8820     1.0435 C.3          1    LIG   0.0000
   2 C2          -1.8912    -5.5513     1.0638 C.ar         1    LIG   0.0000
   3 C3          -0.9600    -6.5829     1.1029 C.ar         1    LIG   0.0000
   4 C4           0.3961    -6.2727     1.1186 C.ar         1    LIG   0.0000
   5 C5           0.8033    -4.9422     1.0874 C.ar         1    LIG   0.0000
   6 C6          -0.1136    -3.8899     1.0401 C.ar         1    LIG   0.0000
   7 C7          -1.4481    -4.2373     1.0368 C.ar         1    LIG   0.0000
   8 N8          -2.1892    -3.0959     1.0160 N.2          1    LIG   0.0000
   9 C9          -1.3293    -2.1093     0.9962 C.2          1    LIG   0.0000
  10 S10         -1.3687    -0.3778     1.0041 S.3          1    LIG   0.0000
  11 C11          0.3396    -0.1438     1.0000 C.2          1    LIG   0.0000
  12 C12          1.0000     1.0000     1.0000 C.2          1    LIG   0.0000
  13 C13          0.2752     2.2554     1.0000 C.2          1    LIG   0.0000
  14 C14          0.3594     3.2165     1.9587 C.2          1    LIG   0.0000
  15 C15          1.1851     3.1642     3.1498 C.ar         1    LIG   0.0000
  16 C16          2.5335     2.8412     3.0389 C.ar         1    LIG   0.0000
  17 C17          3.3178     2.7926     4.1865 C.ar         1    LIG   0.0000
  18 C18          2.7524     3.0658     5.4284 C.ar         1    LIG   0.0000
  19 C19          1.4031     3.3883     5.5299 C.ar         1    LIG   0.0000
  20 C20          0.6113     3.4384     4.3870 C.ar         1    LIG   0.0000
  21 N21         -0.4694     4.2355     1.6043 N.pl3        1    LIG   0.0000
  22 C22         -0.6762     5.4760     2.3681 C.3          1    LIG   0.0000
  23 C23         -1.0710     3.9166     0.4231 C.ar         1    LIG   0.0000
  24 C24         -1.9974     4.6145    -0.3436 C.ar         1    LIG   0.0000
  25 C25         -2.4951     4.0890    -1.5317 C.ar         1    LIG   0.0000
  26 C26         -2.0536     2.8398    -1.9559 C.ar         1    LIG   0.0000
  27 C27         -1.1269     2.1509    -1.1794 C.ar         1    LIG   0.0000
  28 C28         -0.6319     2.6817     0.0085 C.ar         1    LIG   0.0000
  29 C29          0.8885    -1.4807     1.0000 C.2          1    LIG   0.0000
  30 O30          2.0909    -1.6851     1.0068 O.2          1    LIG   0.0000
  31 N31         -0.0437    -2.5214     1.0029 N.pl3        1    LIG   0.0000
  32 H           -3.4947    -6.8744     1.0681 H            1    LIG   0.0000
  33 H           -3.8179    -5.4724     1.8406 H            1    LIG   0.0000
  34 H           -3.7857    -5.5168     0.2085 H            1    LIG   0.0000
  35 H           -1.2614    -7.5363     1.1195 H            1    LIG   0.0000
  36 H            1.0770    -7.0043     1.1522 H            1    LIG   0.0000
  37 H            1.7812    -4.7336     1.0993 H            1    LIG   0.0000
  38 H            2.0000     1.0000     1.0000 H            1    LIG   0.0000
  39 H            2.9346     2.6460     2.1439 H            1    LIG   0.0000
  40 H            4.2884     2.5613     4.1192 H            1    LIG   0.0000
  41 H            3.3188     3.0301     6.2517 H            1    LIG   0.0000
  42 H            1.0020     3.5841     6.4248 H            1    LIG   0.0000
  43 H           -0.3594     3.6690     4.4541 H            1    LIG   0.0000
  44 H           -0.1146     5.4557     3.1952 H            1    LIG   0.0000
  45 H           -0.4142     6.2608     1.8065 H            1    LIG   0.0000
  46 H           -1.6403     5.5545     2.6216 H            1    LIG   0.0000
  47 H           -2.3122     5.5120    -0.0350 H            1    LIG   0.0000
  48 H           -3.1611     4.6021    -2.0732 H            1    LIG   0.0000
  49 H           -2.3974     2.4426    -2.8068 H            1    LIG   0.0000
  50 H           -0.8087     1.2525    -1.4822 H            1    LIG   0.0000
@<TRIPOS>BOND
   1        1        2 1
   2        2        3 ar
   3        3        4 ar
   4        4        5 ar
   5        5        6 ar
   6        6        7 ar
   7        7        2 ar
   8        7        8 1
   9        8        9 2
  10        9       10 1
  11       10       11 1
  12       11       12 2
  13       12       13 1
  14       13       14 2
  15       14       15 1
  16       15       16 ar
  17       16       17 ar
  18       17       18 ar
  19       18       19 ar
  20       19       20 ar
  21       20       15 ar
  22       14       21 1
  23       21       22 1
  24       21       23 1
  25       23       24 ar
  26       24       25 ar
  27       25       26 ar
  28       26       27 ar
  29       27       28 ar
  30       28       13 1
  31       28       23 ar
  32       11       29 1
  33       29       30 2
  34       29       31 1
  35       31        9 1
  36       31        6 1
  37        1       32 1
  38        1       33 1
  39        1       34 1
  40        3       35 1
  41        4       36 1
  42        5       37 1
  43       12       38 1
  44       16       39 1
  45       17       40 1
  46       18       41 1
  47       19       42 1
  48       20       43 1
  49       22       44 1
  50       22       45 1
  51       22       46 1
  52       24       47 1
  53       25       48 1
  54       26       49 1
  55       27       50 1

@<TRIPOS>MOLECULE

  50   55
SMALL
USER_CHARGES
@<TRIPOS>ATOM
   1 C1          -3.3741    -5.8820     1.0435 C.3          1    LIG   0.0000
   2 C2          -1.8912    -5.5513     1.0638 C.ar         1    LIG   0.0000
   3 C3          -0.9600    -6.5829     1.1029 C.ar         1    LIG   0.0000
   4 C4           0.3961    -6.2727     1.1186 C.ar         1    LIG   0.0000
   5 C5           0.8033    -4.9422     1.0874 C.ar         1    LIG   0.0000
   6 C6          -0.1136    -3.8899     1.0401 C.ar         1    LIG   0.0000
   7 C7          -1.4481    -4.2373     1.0368 C.ar         1    LIG   0.0000
   8 N8          -2.1892    -3.0959     1.0160 N.2          1    LIG   0.0000
   9 C9          -1.3293    -2.1093     0.9962 C.2          1    LIG   0.0000
  10 S10         -1.3687    -0.3778     1.0041 S.3          1    LIG   0.0000
  11 C11          0.3396    -0.1438     1.0000 C.2          1    LIG   0.0000
  12 C12          1.0000     1.0000     1.0000 C.2          1    LIG   0.0000
  13 C13          0.2752     2.2554     1.0000 C.2          1    LIG   0.0000
  14 C14          0.3594     3.2165     1.9587 C.2          1    LIG   0.0000
  15 C15          1.1851     3.1642     3.1498 C.ar         1    LIG   0.0000
  16 C16          1.1456     2.0383     3.9657 C.ar         1    LIG   0.0000
  17 C17          1.9403     1.9970     5.1065 C.ar         1    LIG   0.0000
  18 C18          2.7634     3.0740     5.4211 C.ar         1    LIG   0.0000
  19 C19          2.7968     4.1959     4.5993 C.ar         1    LIG   0.0000
  20 C20          2.0046     4.2456     3.4567 C.ar         1    LIG   0.0000
  21 N21         -0.4694     4.2355     1.6043 N.pl3        1    LIG   0.0000
  22 C22         -0.6762     5.4760     2.3681 C.3          1    LIG   0.0000
  23 C23         -1.0710     3.9166     0.4231 C.ar         1    LIG   0.0000
  24 C24         -1.9974     4.6145    -0.3436 C.ar         1    LIG   0.0000
  25 C25         -2.4951     4.0890    -1.5317 C.ar         1    LIG   0.0000
  26 C26         -2.0536     2.8398    -1.9559 C.ar         1    LIG   0.0000
  27 C27         -1.1269     2.1509    -1.1794 C.ar         1    LIG   0.0000
  28 C28         -0.6319     2.6817     0.0085 C.ar         1    LIG   0.0000
  29 C29          0.8885    -1.4807     1.0000 C.2          1    LIG   0.0000
  30 O30          2.0909    -1.6851     1.0068 O.2          1    LIG   0.0000
  31 N31         -0.0437    -2.5214     1.0029 N.pl3        1    LIG   0.0000
  32 H           -3.4947    -6.8744     1.0681 H            1    LIG   0.0000
  33 H           -3.8179    -5.4724     1.8406 H            1    LIG   0.0000
  34 H           -3.7857    -5.5168     0.2085 H            1    LIG   0.0000
  35 H           -1.2614    -7.5363     1.1195 H            1    LIG   0.0000
  36 H            1.0770    -7.0043     1.1522 H            1    LIG   0.0000
  37 H            1.7812    -4.7336     1.0993 H            1    LIG   0.0000
  38 H            2.0000     1.0000     1.0000 H            1    LIG   0.0000
  39 H            0.5524     1.2672     3.7347 H            1    LIG   0.0000
  40 H            1.9201     1.1930     5.7008 H            1    LIG   0.0000
  41 H            3.3336     3.0414     6.2420 H            1    LIG   0.0000
  42 H            3.3904     4.9669     4.8298 H            1    LIG   0.0000
  43 H            2.0240     5.0498     2.8626 H            1    LIG   0.0000
  44 H           -0.1146     5.4557     3.1952 H            1    LIG   0.0000
  45 H           -0.4142     6.2608     1.8065 H            1    LIG   0.0000
  46 H           -1.6403     5.5545     2.6216 H            1    LIG   0.0000
  47 H           -2.3122     5.5120    -0.0350 H            1    LIG   0.0000
  48 H           -3.1611     4.6021    -2.0732 H            1    LIG   0.0000
  49 H           -2.3974     2.4426    -2.8068 H            1    LIG   0.0000
  50 H           -0.8087     1.2525    -1.4822 H            1    LIG   0.0000
@<TRIPOS>BOND
   1        1        2 1
   2        2        3 ar
   3        3        4 ar
   4        4        5 ar
   5        5        6 ar
   6        6        7 ar
   7        7        2 ar
   8        7        8 1
   9        8        9 2
  10        9       10 1
  11       10       11 1
  12       11       12 2
  13       12       13 1
  14       13       14 2
  15       14       15 1
  16       15       16 ar
  17       16       17 ar
  18       17       18 ar
  19       18       19 ar
  20       19       20 ar
  21       20       15 ar
  22       14       21 1
  23       21       22 1
  24       21       23 1
  25       23       24 ar
  26       24       25 ar
  27       25       26 ar
  28       26       27 ar
  29       27       28 ar
  30       28       13 1
  31       28       23 ar
  32       11       29 1
  33       29       30 2
  34       29       31 1
  35       31        9 1
  36       31        6 1
  37        1       32 1
  38        1       33 1
  39        1       34 1
  40        3       35 1
  41        4       36 1
  42        5       37 1
  43       12       38 1
  44       16       39 1
  45       17       40 1
  46       18       41 1
  47       19       42 1
  48       20       43 1
  49       22       44 1
  50       22       45 1
  51       22       46 1
  52       24       47 1
  53       25       48 1
  54       26       49 1
  55       27       50 1

@<TRIPOS>MOLECULE

  50   55
SMALL
USER_CHARGES
@<TRIPOS>ATOM
   1 C1          -3.3741    -5.8820     1.0435 C.3          1    LIG   0.0000
   2 C2          -1.8912    -5.5513     1.0638 C.ar         1    LIG   0.0000
   3 C3          -0.9600    -6.5829     1.1029 C.ar         1    LIG   0.0000
   4 C4           0.3961    -6.2727     1.1186 C.ar         1    LIG   0.0000
   5 C5           0.8033    -4.9422     1.0874 C.ar         1    LIG   0.0000
   6 C6          -0.1136    -3.8899     1.0401 C.ar         1    LIG   0.0000
   7 C7          -1.4481    -4.2373     1.0368 C.ar         1    LIG   0.0000
   8 N8          -2.1892    -3.0959     1.0160 N.2          1    LIG   0.0000
   9 C9          -1.3293    -2.1093     0.9962 C.2          1    LIG   0.0000
  10 S10         -1.3687    -0.3778     1.0041 S.3          1    LIG   0.0000
  11 C11          0.3396    -0.1438     1.0000 C.2          1    LIG   0.0000
  12 C12          1.0000     1.0000     1.0000 C.2          1    LIG   0.0000
  13 C13          0.2752     2.2554     1.0000 C.2          1    LIG   0.0000
  14 C14          0.3594     3.2165     1.9587 C.2          1    LIG   0.0000
  15 C15          1.1851     3.1642     3.1498 C.ar         1    LIG   0.0000
  16 C16          0.6139     2.8124     4.3683 C.ar         1    LIG   0.0000
  17 C17          1.4131     2.7654     5.5057 C.ar         1    LIG   0.0000
  18 C18          2.7684     3.0682     5.4174 C.ar         1    LIG   0.0000
  19 C19          3.3314     3.4188     4.1946 C.ar         1    LIG   0.0000
  20 C20          2.5389     3.4688     3.0522 C.ar         1    LIG   0.0000
  21 N21         -0.4694     4.2355     1.6043 N.pl3        1    LIG   0.0000
  22 C22         -0.6762     5.4760     2.3681 C.3          1    LIG   0.0000
  23 C23         -1.0710     3.9166     0.4231 C.ar         1    LIG   0.0000
  24 C24         -1.9974     4.6145    -0.3436 C.ar         1    LIG   0.0000
  25 C25         -2.4951     4.0890    -1.5317 C.ar         1    LIG   0.0000
  26 C26         -2.0536     2.8398    -1.9559 C.ar         1    LIG   0.0000
  27 C27         -1.1269     2.1509    -1.1794 C.ar         1    LIG   0.0000
  28 C28         -0.6319     2.6817     0.0085 C.ar         1    LIG   0.0000
  29 C29          0.8885    -1.4807     1.0000 C.2          1    LIG   0.0000
  30 O30          2.0909    -1.6851     1.0068 O.2          1    LIG   0.0000
  31 N31         -0.0437    -2.5214     1.0029 N.pl3        1    LIG   0.0000
  32 H           -3.4947    -6.8744     1.0681 H            1    LIG   0.0000
  33 H           -3.8179    -5.4724     1.8406 H            1    LIG   0.0000
  34 H           -3.7857    -5.5168     0.2085 H            1    LIG   0.0000
  35 H           -1.2614    -7.5363     1.1195 H            1    LIG   0.0000
  36 H            1.0770    -7.0043     1.1522 H            1    LIG   0.0000
  37 H            1.7812    -4.7336     1.0993 H            1    LIG   0.0000
  38 H            2.0000     1.0000     1.0000 H            1    LIG   0.0000
  39 H           -0.3606     2.5955     4.4259 H            1    LIG   0.0000
  40 H            1.0135     2.5140     6.3873 H            1    LIG   0.0000
  41 H            3.3405     3.0336     6.2369 H            1    LIG   0.0000
  42 H            4.3060     3.6350     4.1367 H            1    LIG   0.0000
  43 H            2.9381     3.7210     2.1706 H            1    LIG   0.0000
  44 H           -0.1146     5.4557     3.1952 H            1    LIG   0.0000
  45 H           -0.4142     6.2608     1.8065 H            1    LIG   0.0000
  46 H           -1.6403     5.5545     2.6216 H            1    LIG   0.0000
  47 H           -2.3122     5.5120    -0.0350 H            1    LIG   0.0000
  48 H           -3.1611     4.6021    -2.0732 H            1    LIG   0.0000
  49 H           -2.3974     2.4426    -2.8068 H            1    LIG   0.0000
  50 H           -0.8087     1.2525    -1.4822 H            1    LIG   0.0000
@<TRIPOS>BOND
   1        1        2 1
   2        2        3 ar
   3        3        4 ar
   4        4        5 ar
   5        5        6 ar
   6        6        7 ar
   7        7        2 ar
   8        7        8 1
   9        8        9 2
  10        9       10 1
  11       10       11 1
  12       11       12 2
  13       12       13 1
  14       13       14 2
  15       14       15 1
  16       15       16 ar
  17       16       17 ar
  18       17       18 ar
  19       18       19 ar
  20       19       20 ar
  21       20       15 ar
  22       14       21 1
  23       21       22 1
  24       21       23 1
  25       23       24 ar
  26       24       25 ar
  27       25       26 ar
  28       26       27 ar
  29       27       28 ar
  30       28       13 1
  31       28       23 ar
  32       11       29 1
  33       29       30 2
  34       29       31 1
  35       31        9 1
  36       31        6 1
  37        1       32 1
  38        1       33 1
  39        1       34 1
  40        3       35 1
  41        4       36 1
  42        5       37 1
  43       12       38 1
  44       16       39 1
  45       17       40 1
  46       18       41 1
  47       19       42 1
  48       20       43 1
  49       22       44 1
  50       22       45 1
  51       22       46 1
  52       24       47 1
  53       25       48 1
  54       26       49 1
  55       27       50 1

@<TRIPOS>MOLECULE

  50   55
SMALL
USER_CHARGES
@<TRIPOS>ATOM
   1 C1          -3.3741    -5.8820     1.0435 C.3          1    LIG   0.0000
   2 C2          -1.8912    -5.5513     1.0638 C.ar         1    LIG   0.0000
   3 C3          -0.9600    -6.5829     1.1029 C.ar         1    LIG   0.0000
   4 C4           0.3961    -6.2727     1.1186 C.ar         1    LIG   0.0000
   5 C5           0.8033    -4.9422     1.0874 C.ar         1    LIG   0.0000
   6 C6          -0.1136    -3.8899     1.0401 C.ar         1    LIG   0.0000
   7 C7          -1.4481    -4.2373     1.0368 C.ar         1    LIG   0.0000
   8 N8          -2.1892    -3.0959     1.0160 N.2          1    LIG   0.0000
   9 C9          -1.3293    -2.1093     0.9962 C.2          1    LIG   0.0000
  10 S10         -1.3687    -0.3778     1.0041 S.3          1    LIG   0.0000
  11 C11          0.3396    -0.1438     1.0000 C.2          1    LIG   0.0000
  12 C12          1.0000     1.0000     1.0000 C.2          1    LIG   0.0000
  13 C13          0.2752     2.2554     1.0000 C.2          1    LIG   0.0000
  14 C14          0.3594     3.2165     1.9587 C.2          1    LIG   0.0000
  15 C15          1.1851     3.1642     3.1498 C.ar         1    LIG   0.0000
  16 C16          1.8463     4.3100     3.5798 C.ar         1    LIG   0.0000
  17 C17          2.6367     4.2506     4.7228 C.ar         1    LIG   0.0000
  18 C18          2.7593     3.0544     5.4231 C.ar         1    LIG   0.0000
  19 C19          2.0943     1.9134     4.9860 C.ar         1    LIG   0.0000
  20 C20          1.3022     1.9641     3.8434 C.ar         1    LIG   0.0000
  21 N21         -0.4694     4.2355     1.6043 N.pl3        1    LIG   0.0000
  22 C22         -0.6762     5.4760     2.3681 C.3          1    LIG   0.0000
  23 C23         -1.0710     3.9166     0.4231 C.ar         1    LIG   0.0000
  24 C24         -1.9974     4.6145    -0.3436 C.ar         1    LIG   0.0000
  25 C25         -2.4951     4.0890    -1.5317 C.ar         1    LIG   0.0000
  26 C26         -2.0536     2.8398    -1.9559 C.ar         1    LIG   0.0000
  27 C27         -1.1269     2.1509    -1.1794 C.ar         1    LIG   0.0000
  28 C28         -0.6319     2.6817     0.0085 C.ar         1    LIG   0.0000
  29 C29          0.8885    -1.4807     1.0000 C.2          1    LIG   0.0000
  30 O30          2.0909    -1.6851     1.0068 O.2          1    LIG   0.0000
  31 N31         -0.0437    -2.5214     1.0029 N.pl3        1    LIG   0.0000
  32 H           -3.4947    -6.8744     1.0681 H            1    LIG   0.0000
  33 H           -3.8179    -5.4724     1.8406 H            1    LIG   0.0000
  34 H           -3.7857    -5.5168     0.2085 H            1    LIG   0.0000
  35 H           -1.2614    -7.5363     1.1195 H            1    LIG   0.0000
  36 H            1.0770    -7.0043     1.1522 H            1    LIG   0.0000
  37 H            1.7812    -4.7336     1.0993 H            1    LIG   0.0000
  38 H            2.0000     1.0000     1.0000 H            1    LIG   0.0000
  39 H            1.7544     5.1670     3.0727 H            1    LIG   0.0000
  40 H            3.1170     5.0678     5.0413 H            1    LIG   0.0000
  41 H            3.3282     3.0148     6.2445 H            1    LIG   0.0000
  42 H            2.1855     1.0565     5.4934 H            1    LIG   0.0000
  43 H            0.8224     1.1468     3.5241 H            1    LIG   0.0000
  44 H           -0.1146     5.4557     3.1952 H            1    LIG   0.0000
  45 H           -0.4142     6.2608     1.8065 H            1    LIG   0.0000
  46 H           -1.6403     5.5545     2.6216 H            1    LIG   0.0000
  47 H           -2.3122     5.5120    -0.0350 H            1    LIG   0.0000
  48 H           -3.1611     4.6021    -2.0732 H            1    LIG   0.0000
  49 H           -2.3974     2.4426    -2.8068 H            1    LIG   0.0000
  50 H           -0.8087     1.2525    -1.4822 H            1    LIG   0.0000
@<TRIPOS>BOND
   1        1        2 1
   2        2        3 ar
   3        3        4 ar
   4        4        5 ar
   5        5        6 ar
   6        6        7 ar
   7        7        2 ar
   8        7        8 1
   9        8        9 2
  10        9       10 1
  11       10       11 1
  12       11       12 2
  13       12       13 1
  14       13       14 2
  15       14       15 1
  16       15       16 ar
  17       16       17 ar
  18       17       18 ar
  19       18       19 ar
  20       19       20 ar
  21       20       15 ar
  22       14       21 1
  23       21       22 1
  24       21       23 1
  25       23       24 ar
  26       24       25 ar
  27       25       26 ar
  28       26       27 ar
  29       27       28 ar
  30       28       13 1
  31       28       23 ar
  32       11       29 1
  33       29       30 2
  34       29       31 1
  35       31        9 1
  36       31        6 1
  37        1       32 1
  38        1       33 1
  39        1       34 1
  40        3       35 1
  41        4       36 1
  42        5       37 1
  43       12       38 1
  44       16       39 1
  45       17       40 1
  46       18       41 1
  47       19       42 1
  48       20       43 1
  49       22       44 1
  50       22       45 1
  51       22       46 1
  52       24       47 1
  53       25       48 1
  54       26       49 1
  55       27       50 1

@<TRIPOS>MOLECULE

  50   55
SMALL
USER_CHARGES
@<TRIPOS>ATOM
   1 C1          -3.3741    -5.8820     1.0435 C.3          1    LIG   0.0000
   2 C2          -1.8912    -5.5513     1.0638 C.ar         1    LIG   0.0000
   3 C3          -0.9600    -6.5829     1.1029 C.ar         1    LIG   0.0000
   4 C4           0.3961    -6.2727     1.1186 C.ar         1    LIG   0.0000
   5 C5           0.8033    -4.9422     1.0874 C.ar         1    LIG   0.0000
   6 C6          -0.1136    -3.8899     1.0401 C.ar         1    LIG   0.0000
   7 C7          -1.4481    -4.2373     1.0368 C.ar         1    LIG   0.0000
   8 N8          -2.1892    -3.0959     1.0160 N.2          1    LIG   0.0000
   9 C9          -1.3293    -2.1093     0.9962 C.2          1    LIG   0.0000
  10 S10         -1.3687    -0.3778     1.0041 S.3          1    LIG   0.0000
  11 C11          0.3396    -0.1438     1.0000 C.2          1    LIG   0.0000
  12 C12          1.0000     1.0000     1.0000 C.2          1    LIG   0.0000
  13 C13          0.2752     2.2554     1.0000 C.2          1    LIG   0.0000
  14 C14         -0.1199     2.9398     2.1070 C.2          1    LIG   0.0000
  15 C15          0.1101     2.5435     3.4830 C.ar         1    LIG   0.0000
  16 C16          1.3898     2.1808     3.8901 C.ar         1    LIG   0.0000
  17 C17          1.6011     1.8014     5.2114 C.ar         1    LIG   0.0000
  18 C18          0.5390     1.7878     6.1104 C.ar         1    LIG   0.0000
  19 C19         -0.7375     2.1524     5.6946 C.ar         1    LIG   0.0000
  20 C20         -0.9577     2.5325     4.3745 C.ar         1    LIG   0.0000
  21 N21         -0.7711     4.0613     1.6960 N.pl3        1    LIG   0.0000
  22 C22         -1.3598     5.0813     2.5780 C.3          1    LIG   0.0000
  23 C23         -0.7823     4.0833     0.3328 C.ar         1    LIG   0.0000
  24 C24         -1.3241     5.0032    -0.5579 C.ar         1    LIG   0.0000
  25 C25         -1.2269     4.8212    -1.9337 C.ar         1    LIG   0.0000
  26 C26         -0.5736     3.6943    -2.4221 C.ar         1    LIG   0.0000
  27 C27         -0.0363     2.7806    -1.5207 C.ar         1    LIG   0.0000
  28 C28         -0.1362     2.9679    -0.1449 C.ar         1    LIG   0.0000
  29 C29          0.8885    -1.4807     1.0000 C.2          1    LIG   0.0000
  30 O30          2.0909    -1.6851     1.0068 O.2          1    LIG   0.0000
  31 N31         -0.0437    -2.5214     1.0029 N.pl3        1    LIG   0.0000
  32 H           -3.4947    -6.8744     1.0681 H            1    LIG   0.0000
  33 H           -3.8179    -5.4724     1.8406 H            1    LIG   0.0000
  34 H           -3.7857    -5.5168     0.2085 H            1    LIG   0.0000
  35 H           -1.2614    -7.5363     1.1195 H            1    LIG   0.0000
  36 H            1.0770    -7.0043     1.1522 H            1    LIG   0.0000
  37 H            1.7812    -4.7336     1.0993 H            1    LIG   0.0000
  38 H            2.0000     1.0000     1.0000 H            1    LIG   0.0000
  39 H            2.1494     2.1927     3.2398 H            1    LIG   0.0000
  40 H            2.5167     1.5384     5.5156 H            1    LIG   0.0000
  41 H            0.6940     1.5147     7.0597 H            1    LIG   0.0000
  42 H           -1.4971     2.1413     6.3449 H            1    LIG   0.0000
  43 H           -1.8733     2.7949     4.0700 H            1    LIG   0.0000
  44 H           -1.2116     4.8223     3.5324 H            1    LIG   0.0000
  45 H           -0.9266     5.9651     2.4013 H            1    LIG   0.0000
  46 H           -2.3414     5.1497     2.3997 H            1    LIG   0.0000
  47 H           -1.7930     5.8118    -0.2025 H            1    LIG   0.0000
  48 H           -1.6212     5.4911    -2.5628 H            1    LIG   0.0000
  49 H           -0.4913     3.5431    -3.4072 H            1    LIG   0.0000
  50 H            0.4332     1.9696    -1.8697 H            1    LIG   0.0000
@<TRIPOS>BOND
   1        1        2 1
   2        2        3 ar
   3        3        4 ar
   4        4        5 ar
   5        5        6 ar
   6        6        7 ar
   7        7        2 ar
   8        7        8 1
   9        8        9 2
  10        9       10 1
  11       10       11 1
  12       11       12 2
  13       12       13 1
  14       13       14 2
  15       14       15 1
  16       15       16 ar
  17       16       17 ar
  18       17       18 ar
  19       18       19 ar
  20       19       20 ar
  21       20       15 ar
  22       14       21 1
  23       21       22 1
  24       21       23 1
  25       23       24 ar
  26       24       25 ar
  27       25       26 ar
  28       26       27 ar
  29       27       28 ar
  30       28       13 1
  31       28       23 ar
  32       11       29 1
  33       29       30 2
  34       29       31 1
  35       31        9 1
  36       31        6 1
  37        1       32 1
  38        1       33 1
  39        1       34 1
  40        3       35 1
  41        4       36 1
  42        5       37 1
  43       12       38 1
  44       16       39 1
  45       17       40 1
  46       18       41 1
  47       19       42 1
  48       20       43 1
  49       22       44 1
  50       22       45 1
  51       22       46 1
  52       24       47 1
  53       25       48 1
  54       26       49 1
  55       27       50 1

@<TRIPOS>MOLECULE

  50   55
SMALL
USER_CHARGES
@<TRIPOS>ATOM
   1 C1          -3.3741    -5.8820     1.0435 C.3          1    LIG   0.0000
   2 C2          -1.8912    -5.5513     1.0638 C.ar         1    LIG   0.0000
   3 C3          -0.9600    -6.5829     1.1029 C.ar         1    LIG   0.0000
   4 C4           0.3961    -6.2727     1.1186 C.ar         1    LIG   0.0000
   5 C5           0.8033    -4.9422     1.0874 C.ar         1    LIG   0.0000
   6 C6          -0.1136    -3.8899     1.0401 C.ar         1    LIG   0.0000
   7 C7          -1.4481    -4.2373     1.0368 C.ar         1    LIG   0.0000
   8 N8          -2.1892    -3.0959     1.0160 N.2          1    LIG   0.0000
   9 C9          -1.3293    -2.1093     0.9962 C.2          1    LIG   0.0000
  10 S10         -1.3687    -0.3778     1.0041 S.3          1    LIG   0.0000
  11 C11          0.3396    -0.1438     1.0000 C.2          1    LIG   0.0000
  12 C12          1.0000     1.0000     1.0000 C.2          1    LIG   0.0000
  13 C13          0.2752     2.2554     1.0000 C.2          1    LIG   0.0000
  14 C14         -0.1199     2.9398     2.1070 C.2          1    LIG   0.0000
  15 C15          0.1101     2.5435     3.4830 C.ar         1    LIG   0.0000
  16 C16         -0.2134     1.2537     3.8910 C.ar         1    LIG   0.0000
  17 C17          0.0098     0.8824     5.2128 C.ar         1    LIG   0.0000
  18 C18          0.5515     1.7970     6.1109 C.ar         1    LIG   0.0000
  19 C19          0.8723     3.0848     5.6941 C.ar         1    LIG   0.0000
  20 C20          0.6516     3.4645     4.3739 C.ar         1    LIG   0.0000
  21 N21         -0.7711     4.0613     1.6960 N.pl3        1    LIG   0.0000
  22 C22         -1.3598     5.0813     2.5780 C.3          1    LIG   0.0000
  23 C23         -0.7823     4.0833     0.3328 C.ar         1    LIG   0.0000
  24 C24         -1.3241     5.0032    -0.5579 C.ar         1    LIG   0.0000
  25 C25         -1.2269     4.8212    -1.9337 C.ar         1    LIG   0.0000
  26 C26         -0.5736     3.6943    -2.4221 C.ar         1    LIG   0.0000
  27 C27         -0.0363     2.7806    -1.5207 C.ar         1    LIG   0.0000
  28 C28         -0.1362     2.9679    -0.1449 C.ar         1    LIG   0.0000
  29 C29          0.8885    -1.4807     1.0000 C.2          1    LIG   0.0000
  30 O30          2.0909    -1.6851     1.0068 O.2          1    LIG   0.0000
  31 N31         -0.0437    -2.5214     1.0029 N.pl3        1    LIG   0.0000
  32 H           -3.4947    -6.8744     1.0681 H            1    LIG   0.0000
  33 H           -3.8179    -5.4724     1.8406 H            1    LIG   0.0000
  34 H           -3.7857    -5.5168     0.2085 H            1    LIG   0.0000
  35 H           -1.2614    -7.5363     1.1195 H            1    LIG   0.0000
  36 H            1.0770    -7.0043     1.1522 H            1    LIG   0.0000
  37 H            1.7812    -4.7336     1.0993 H            1    LIG   0.0000
  38 H            2.0000     1.0000     1.0000 H            1    LIG   0.0000
  39 H           -0.6022     0.6005     3.2413 H            1    LIG   0.0000
  40 H           -0.2191    -0.0420     5.5177 H            1    LIG   0.0000
  41 H            0.7109     1.5271     7.0605 H            1    LIG   0.0000
  42 H            1.2617     3.7379     6.3435 H            1    LIG   0.0000
  43 H            0.8796     4.3891     4.0689 H            1    LIG   0.0000
  44 H           -1.2116     4.8223     3.5324 H            1    LIG   0.0000
  45 H           -0.9266     5.9651     2.4013 H            1    LIG   0.0000
  46 H           -2.3414     5.1497     2.3997 H            1    LIG   0.0000
  47 H           -1.7930     5.8118    -0.2025 H            1    LIG   0.0000
  48 H           -1.6212     5.4911    -2.5628 H            1    LIG   0.0000
  49 H           -0.4913     3.5431    -3.4072 H            1    LIG   0.0000
  50 H            0.4332     1.9696    -1.8697 H            1    LIG   0.0000
@<TRIPOS>BOND
   1        1        2 1
   2        2        3 ar
   3        3        4 ar
   4        4        5 ar
   5        5        6 ar
   6        6        7 ar
   7        7        2 ar
   8        7        8 1
   9        8        9 2
  10        9       10 1
  11       10       11 1
  12       11       12 2
  13       12       13 1
  14       13       14 2
  15       14       15 1
  16       15       16 ar
  17       16       17 ar
  18       17       18 ar
  19       18       19 ar
  20       19       20 ar
  21       20       15 ar
  22       14       21 1
  23       21       22 1
  24       21       23 1
  25       23       24 ar
  26       24       25 ar
  27       25       26 ar
  28       26       27 ar
  29       27       28 ar
  30       28       13 1
  31       28       23 ar
  32       11       29 1
  33       29       30 2
  34       29       31 1
  35       31        9 1
  36       31        6 1
  37        1       32 1
  38        1       33 1
  39        1       34 1
  40        3       35 1
  41        4       36 1
  42        5       37 1
  43       12       38 1
  44       16       39 1
  45       17       40 1
  46       18       41 1
  47       19       42 1
  48       20       43 1
  49       22       44 1
  50       22       45 1
  51       22       46 1
  52       24       47 1
  53       25       48 1
  54       26       49 1
  55       27       50 1

@<TRIPOS>MOLECULE

  50   55
SMALL
USER_CHARGES
@<TRIPOS>ATOM
   1 C1          -3.3741    -5.8820     1.0435 C.3          1    LIG   0.0000
   2 C2          -1.8912    -5.5513     1.0638 C.ar         1    LIG   0.0000
   3 C3          -0.9600    -6.5829     1.1029 C.ar         1    LIG   0.0000
   4 C4           0.3961    -6.2727     1.1186 C.ar         1    LIG   0.0000
   5 C5           0.8033    -4.9422     1.0874 C.ar         1    LIG   0.0000
   6 C6          -0.1136    -3.8899     1.0401 C.ar         1    LIG   0.0000
   7 C7          -1.4481    -4.2373     1.0368 C.ar         1    LIG   0.0000
   8 N8          -2.1892    -3.0959     1.0160 N.2          1    LIG   0.0000
   9 C9          -1.3293    -2.1093     0.9962 C.2          1    LIG   0.0000
  10 S10         -1.3687    -0.3778     1.0041 S.3          1    LIG   0.0000
  11 C11          0.3396    -0.1438     1.0000 C.2          1    LIG   0.0000
  12 C12          1.0000     1.0000     1.0000 C.2          1    LIG   0.0000
  13 C13          0.2752     2.2554     1.0000 C.2          1    LIG   0.0000
  14 C14         -0.1199     2.9398     2.1070 C.2          1    LIG   0.0000
  15 C15          0.1101     2.5435     3.4830 C.ar         1    LIG   0.0000
  16 C16         -0.9110     1.9320     4.2029 C.ar         1    LIG   0.0000
  17 C17         -0.6819     1.5559     5.5223 C.ar         1    LIG   0.0000
  18 C18          0.5580     1.7920     6.1084 C.ar         1    LIG   0.0000
  19 C19          1.5735     2.4039     5.3808 C.ar         1    LIG   0.0000
  20 C20          1.3524     2.7838     4.0608 C.ar         1    LIG   0.0000
  21 N21         -0.7711     4.0613     1.6960 N.pl3        1    LIG   0.0000
  22 C22         -1.3598     5.0813     2.5780 C.3          1    LIG   0.0000
  23 C23         -0.7823     4.0833     0.3328 C.ar         1    LIG   0.0000
  24 C24         -1.3241     5.0032    -0.5579 C.ar         1    LIG   0.0000
  25 C25         -1.2269     4.8212    -1.9337 C.ar         1    LIG   0.0000
  26 C26         -0.5736     3.6943    -2.4221 C.ar         1    LIG   0.0000
  27 C27         -0.0363     2.7806    -1.5207 C.ar         1    LIG   0.0000
  28 C28         -0.1362     2.9679    -0.1449 C.ar         1    LIG   0.0000
  29 C29          0.8885    -1.4807     1.0000 C.2          1    LIG   0.0000
  30 O30          2.0909    -1.6851     1.0068 O.2          1    LIG   0.0000
  31 N31         -0.0437    -2.5214     1.0029 N.pl3        1    LIG   0.0000
  32 H           -3.4947    -6.8744     1.0681 H            1    LIG   0.0000
  33 H           -3.8179    -5.4724     1.8406 H            1    LIG   0.0000
  34 H           -3.7857    -5.5168     0.2085 H            1    LIG   0.0000
  35 H           -1.2614    -7.5363     1.1195 H            1    LIG   0.0000
  36 H            1.0770    -7.0043     1.1522 H            1    LIG   0.0000
  37 H            1.7812    -4.7336     1.0993 H            1    LIG   0.0000
  38 H            2.0000     1.0000     1.0000 H            1    LIG   0.0000
  39 H           -1.7999     1.7645     3.7766 H            1    LIG   0.0000
  40 H           -1.4084     1.1157     6.0499 H            1    LIG   0.0000
  41 H            0.7197     1.5205     7.0571 H            1    LIG   0.0000
  42 H            2.4627     2.5708     5.8067 H            1    LIG   0.0000
  43 H            2.0786     3.2247     3.5333 H            1    LIG   0.0000
  44 H           -1.2116     4.8223     3.5324 H            1    LIG   0.0000
  45 H           -0.9266     5.9651     2.4013 H            1    LIG   0.0000
  46 H           -2.3414     5.1497     2.3997 H            1    LIG   0.0000
  47 H           -1.7930     5.8118    -0.2025 H            1    LIG   0.0000
  48 H           -1.6212     5.4911    -2.5628 H            1    LIG   0.0000
  49 H           -0.4913     3.5431    -3.4072 H            1    LIG   0.0000
  50 H            0.4332     1.9696    -1.8697 H            1    LIG   0.0000
@<TRIPOS>BOND
   1        1        2 1
   2        2        3 ar
   3        3        4 ar
   4        4        5 ar
   5        5        6 ar
   6        6        7 ar
   7        7        2 ar
   8        7        8 1
   9        8        9 2
  10        9       10 1
  11       10       11 1
  12       11       12 2
  13       12       13 1
  14       13       14 2
  15       14       15 1
  16       15       16 ar
  17       16       17 ar
  18       17       18 ar
  19       18       19 ar
  20       19       20 ar
  21       20       15 ar
  22       14       21 1
  23       21       22 1
  24       21       23 1
  25       23       24 ar
  26       24       25 ar
  27       25       26 ar
  28       26       27 ar
  29       27       28 ar
  30       28       13 1
  31       28       23 ar
  32       11       29 1
  33       29       30 2
  34       29       31 1
  35       31        9 1
  36       31        6 1
  37        1       32 1
  38        1       33 1
  39        1       34 1
  40        3       35 1
  41        4       36 1
  42        5       37 1
  43       12       38 1
  44       16       39 1
  45       17       40 1
  46       18       41 1
  47       19       42 1
  48       20       43 1
  49       22       44 1
  50       22       45 1
  51       22       46 1
  52       24       47 1
  53       25       48 1
  54       26       49 1
  55       27       50 1

@<TRIPOS>MOLECULE

  50   55
SMALL
USER_CHARGES
@<TRIPOS>ATOM
   1 C1          -3.3741    -5.8820     1.0435 C.3          1    LIG   0.0000
   2 C2          -1.8912    -5.5513     1.0638 C.ar         1    LIG   0.0000
   3 C3          -0.9600    -6.5829     1.1029 C.ar         1    LIG   0.0000
   4 C4           0.3961    -6.2727     1.1186 C.ar         1    LIG   0.0000
   5 C5           0.8033    -4.9422     1.0874 C.ar         1    LIG   0.0000
   6 C6          -0.1136    -3.8899     1.0401 C.ar         1    LIG   0.0000
   7 C7          -1.4481    -4.2373     1.0368 C.ar         1    LIG   0.0000
   8 N8          -2.1892    -3.0959     1.0160 N.2          1    LIG   0.0000
   9 C9          -1.3293    -2.1093     0.9962 C.2          1    LIG   0.0000
  10 S10         -1.3687    -0.3778     1.0041 S.3          1    LIG   0.0000
  11 C11          0.3396    -0.1438     1.0000 C.2          1    LIG   0.0000
  12 C12          1.0000     1.0000     1.0000 C.2          1    LIG   0.0000
  13 C13          0.2752     2.2554     1.0000 C.2          1    LIG   0.0000
  14 C14         -0.1199     2.9398     2.1070 C.2          1    LIG   0.0000
  15 C15          0.1101     2.5435     3.4830 C.ar         1    LIG   0.0000
  16 C16          0.4522     3.5051     4.4281 C.ar         1    LIG   0.0000
  17 C17          0.6716     3.1161     5.7454 C.ar         1    LIG   0.0000
  18 C18          0.5481     1.7777     6.1059 C.ar         1    LIG   0.0000
  19 C19          0.2053     0.8229     5.1542 C.ar         1    LIG   0.0000
  20 C20         -0.0153     1.2034     3.8343 C.ar         1    LIG   0.0000
  21 N21         -0.7711     4.0613     1.6960 N.pl3        1    LIG   0.0000
  22 C22         -1.3598     5.0813     2.5780 C.3          1    LIG   0.0000
  23 C23         -0.7823     4.0833     0.3328 C.ar         1    LIG   0.0000
  24 C24         -1.3241     5.0032    -0.5579 C.ar         1    LIG   0.0000
  25 C25         -1.2269     4.8212    -1.9337 C.ar         1    LIG   0.0000
  26 C26         -0.5736     3.6943    -2.4221 C.ar         1    LIG   0.0000
  27 C27         -0.0363     2.7806    -1.5207 C.ar         1    LIG   0.0000
  28 C28         -0.1362     2.9679    -0.1449 C.ar         1    LIG   0.0000
  29 C29          0.8885    -1.4807     1.0000 C.2          1    LIG   0.0000
  30 O30          2.0909    -1.6851     1.0068 O.2          1    LIG   0.0000
  31 N31         -0.0437    -2.5214     1.0029 N.pl3        1    LIG   0.0000
  32 H           -3.4947    -6.8744     1.0681 H            1    LIG   0.0000
  33 H           -3.8179    -5.4724     1.8406 H            1    LIG   0.0000
  34 H           -3.7857    -5.5168     0.2085 H            1    LIG   0.0000
  35 H           -1.2614    -7.5363     1.1195 H            1    LIG   0.0000
  36 H            1.0770    -7.0043     1.1522 H            1    LIG   0.0000
  37 H            1.7812    -4.7336     1.0993 H            1    LIG   0.0000
  38 H            2.0000     1.0000     1.0000 H            1    LIG   0.0000
  39 H            0.5393     4.4655     4.1634 H            1    LIG   0.0000
  40 H            0.9183     3.7984     6.4335 H            1    LIG   0.0000
  41 H            0.7064     1.5011     7.0538 H            1    LIG   0.0000
  42 H            0.1174    -0.1375     5.4188 H            1    LIG   0.0000
  43 H           -0.2612     0.5212     3.1458 H            1    LIG   0.0000
  44 H           -1.2116     4.8223     3.5324 H            1    LIG   0.0000
  45 H           -0.9266     5.9651     2.4013 H            1    LIG   0.0000
  46 H           -2.3414     5.1497     2.3997 H            1    LIG   0.0000
  47 H           -1.7930     5.8118    -0.2025 H            1    LIG   0.0000
  48 H           -1.6212     5.4911    -2.5628 H            1    LIG   0.0000
  49 H           -0.4913     3.5431    -3.4072 H            1    LIG   0.0000
  50 H            0.4332     1.9696    -1.8697 H            1    LIG   0.0000
@<TRIPOS>BOND
   1        1        2 1
   2        2        3 ar
   3        3        4 ar
   4        4        5 ar
   5        5        6 ar
   6        6        7 ar
   7        7        2 ar
   8        7        8 1
   9        8        9 2
  10        9       10 1
  11       10       11 1
  12       11       12 2
  13       12       13 1
  14       13       14 2
  15       14       15 1
  16       15       16 ar
  17       16       17 ar
  18       17       18 ar
  19       18       19 ar
  20       19       20 ar
  21       20       15 ar
  22       14       21 1
  23       21       22 1
  24       21       23 1
  25       23       24 ar
  26       24       25 ar
  27       25       26 ar
  28       26       27 ar
  29       27       28 ar
  30       28       13 1
  31       28       23 ar
  32       11       29 1
  33       29       30 2
  34       29       31 1
  35       31        9 1
  36       31        6 1
  37        1       32 1
  38        1       33 1
  39        1       34 1
  40        3       35 1
  41        4       36 1
  42        5       37 1
  43       12       38 1
  44       16       39 1
  45       17       40 1
  46       18       41 1
  47       19       42 1
  48       20       43 1
  49       22       44 1
  50       22       45 1
  51       22       46 1
  52       24       47 1
  53       25       48 1
  54       26       49 1
  55       27       50 1

@<TRIPOS>MOLECULE

  50   55
SMALL
USER_CHARGES
@<TRIPOS>ATOM
   1 C1          -3.3741    -5.8820     1.0435 C.3          1    LIG   0.0000
   2 C2          -1.8912    -5.5513     1.0638 C.ar         1    LIG   0.0000
   3 C3          -0.9600    -6.5829     1.1029 C.ar         1    LIG   0.0000
   4 C4           0.3961    -6.2727     1.1186 C.ar         1    LIG   0.0000
   5 C5           0.8033    -4.9422     1.0874 C.ar         1    LIG   0.0000
   6 C6          -0.1136    -3.8899     1.0401 C.ar         1    LIG   0.0000
   7 C7          -1.4481    -4.2373     1.0368 C.ar         1    LIG   0.0000
   8 N8          -2.1892    -3.0959     1.0160 N.2          1    LIG   0.0000
   9 C9          -1.3293    -2.1093     0.9962 C.2          1    LIG   0.0000
  10 S10         -1.3687    -0.3778     1.0041 S.3          1    LIG   0.0000
  11 C11          0.3396    -0.1438     1.0000 C.2          1    LIG   0.0000
  12 C12          1.0000     1.0000     1.0000 C.2          1    LIG   0.0000
  13 C13          0.2752     2.2554     1.0000 C.2          1    LIG   0.0000
  14 C14          0.3594     3.2165     0.0413 C.2          1    LIG   0.0000
  15 C15          1.1835     3.1633    -1.1509 C.ar         1    LIG   0.0000
  16 C16          1.1416     2.0375    -1.9668 C.ar         1    LIG   0.0000
  17 C17          1.9359     1.9947    -3.1079 C.ar         1    LIG   0.0000
  18 C18          2.7605     3.0704    -3.4230 C.ar         1    LIG   0.0000
  19 C19          2.7958     4.1924    -2.6014 C.ar         1    LIG   0.0000
  20 C20          2.0050     4.2431    -1.4579 C.ar         1    LIG   0.0000
  21 N21         -0.4646     4.2383     0.3988 N.pl3        1    LIG   0.0000
  22 C22         -0.6717     5.4786    -0.3651 C.3          1    LIG   0.0000
  23 C23         -1.0682     3.9182     1.5788 C.ar         1    LIG   0.0000
  24 C24         -1.9807     4.6241     2.3548 C.ar         1    LIG   0.0000
  25 C25         -2.4682     4.1045     3.5496 C.ar         1    LIG   0.0000
  26 C26         -2.0302     2.8534     3.9715 C.ar         1    LIG   0.0000
  27 C27         -1.1163     2.1571     3.1866 C.ar         1    LIG   0.0000
  28 C28         -0.6319     2.6817     1.9915 C.ar         1    LIG   0.0000
  29 C29          0.8885    -1.4807     1.0000 C.2          1    LIG   0.0000
  30 O30          2.0909    -1.6851     1.0068 O.2          1    LIG   0.0000
  31 N31         -0.0437    -2.5214     1.0029 N.pl3        1    LIG   0.0000
  32 H           -3.4947    -6.8744     1.0681 H            1    LIG   0.0000
  33 H           -3.8179    -5.4724     1.8406 H            1    LIG   0.0000
  34 H           -3.7857    -5.5168     0.2085 H            1    LIG   0.0000
  35 H           -1.2614    -7.5363     1.1195 H            1    LIG   0.0000
  36 H            1.0770    -7.0043     1.1522 H            1    LIG   0.0000
  37 H            1.7812    -4.7336     1.0993 H            1    LIG   0.0000
  38 H            2.0000     1.0000     1.0000 H            1    LIG   0.0000
  39 H            0.5470     1.2675    -1.7356 H            1    LIG   0.0000
  40 H            1.9143     1.1906    -3.7020 H            1    LIG   0.0000
  41 H            3.3303     3.0368    -4.2441 H            1    LIG   0.0000
  42 H            3.3899     4.9628    -2.8328 H            1    LIG   0.0000
  43 H            2.0270     5.0467    -0.8632 H            1    LIG   0.0000
  44 H           -0.1083     5.4593    -1.1911 H            1    LIG   0.0000
  45 H           -1.6354     5.5558    -0.6206 H            1    LIG   0.0000
  46 H           -0.4120     6.2637     0.1973 H            1    LIG   0.0000
  47 H           -2.2928     5.5232     2.0479 H            1    LIG   0.0000
  48 H           -3.1244     4.6233     4.0977 H            1    LIG   0.0000
  49 H           -2.3674     2.4599     4.8267 H            1    LIG   0.0000
  50 H           -0.7996     1.2578     3.4883 H            1    LIG   0.0000
@<TRIPOS>BOND
   1        1        2 1
   2        2        3 ar
   3        3        4 ar
   4        4        5 ar
   5        5        6 ar
   6        6        7 ar
   7        7        2 ar
   8        7        8 1
   9        8        9 2
  10        9       10 1
  11       10       11 1
  12       11       12 2
  13       12       13 1
  14       13       14 2
  15       14       15 1
  16       15       16 ar
  17       16       17 ar
  18       17       18 ar
  19       18       19 ar
  20       19       20 ar
  21       20       15 ar
  22       14       21 1
  23       21       22 1
  24       21       23 1
  25       23       24 ar
  26       24       25 ar
  27       25       26 ar
  28       26       27 ar
  29       27       28 ar
  30       28       13 1
  31       28       23 ar
  32       11       29 1
  33       29       30 2
  34       29       31 1
  35       31        9 1
  36       31        6 1
  37        1       32 1
  38        1       33 1
  39        1       34 1
  40        3       35 1
  41        4       36 1
  42        5       37 1
  43       12       38 1
  44       16       39 1
  45       17       40 1
  46       18       41 1
  47       19       42 1
  48       20       43 1
  49       22       44 1
  50       22       45 1
  51       22       46 1
  52       24       47 1
  53       25       48 1
  54       26       49 1
  55       27       50 1

@<TRIPOS>MOLECULE

  50   55
SMALL
USER_CHARGES
@<TRIPOS>ATOM
   1 C1          -3.3741    -5.8820     1.0435 C.3          1    LIG   0.0000
   2 C2          -1.8912    -5.5513     1.0638 C.ar         1    LIG   0.0000
   3 C3          -0.9600    -6.5829     1.1029 C.ar         1    LIG   0.0000
   4 C4           0.3961    -6.2727     1.1186 C.ar         1    LIG   0.0000
   5 C5           0.8033    -4.9422     1.0874 C.ar         1    LIG   0.0000
   6 C6          -0.1136    -3.8899     1.0401 C.ar         1    LIG   0.0000
   7 C7          -1.4481    -4.2373     1.0368 C.ar         1    LIG   0.0000
   8 N8          -2.1892    -3.0959     1.0160 N.2          1    LIG   0.0000
   9 C9          -1.3293    -2.1093     0.9962 C.2          1    LIG   0.0000
  10 S10         -1.3687    -0.3778     1.0041 S.3          1    LIG   0.0000
  11 C11          0.3396    -0.1438     1.0000 C.2          1    LIG   0.0000
  12 C12          1.0000     1.0000     1.0000 C.2          1    LIG   0.0000
  13 C13          0.2752     2.2554     1.0000 C.2          1    LIG   0.0000
  14 C14          0.3594     3.2165     0.0413 C.2          1    LIG   0.0000
  15 C15          1.1835     3.1633    -1.1509 C.ar         1    LIG   0.0000
  16 C16          2.5317     2.8386    -1.0417 C.ar         1    LIG   0.0000
  17 C17          3.3148     2.7906    -2.1902 C.ar         1    LIG   0.0000
  18 C18          2.7483     3.0653    -3.4312 C.ar         1    LIG   0.0000
  19 C19          1.3991     3.3889    -3.5311 C.ar         1    LIG   0.0000
  20 C20          0.6089     3.4398    -2.3872 C.ar         1    LIG   0.0000
  21 N21         -0.4646     4.2383     0.3988 N.pl3        1    LIG   0.0000
  22 C22         -0.6717     5.4786    -0.3651 C.3          1    LIG   0.0000
  23 C23         -1.0682     3.9182     1.5788 C.ar         1    LIG   0.0000
  24 C24         -1.9807     4.6241     2.3548 C.ar         1    LIG   0.0000
  25 C25         -2.4682     4.1045     3.5496 C.ar         1    LIG   0.0000
  26 C26         -2.0302     2.8534     3.9715 C.ar         1    LIG   0.0000
  27 C27         -1.1163     2.1571     3.1866 C.ar         1    LIG   0.0000
  28 C28         -0.6319     2.6817     1.9915 C.ar         1    LIG   0.0000
  29 C29          0.8885    -1.4807     1.0000 C.2          1    LIG   0.0000
  30 O30          2.0909    -1.6851     1.0068 O.2          1    LIG   0.0000
  31 N31         -0.0437    -2.5214     1.0029 N.pl3        1    LIG   0.0000
  32 H           -3.4947    -6.8744     1.0681 H            1    LIG   0.0000
  33 H           -3.8179    -5.4724     1.8406 H            1    LIG   0.0000
  34 H           -3.7857    -5.5168     0.2085 H            1    LIG   0.0000
  35 H           -1.2614    -7.5363     1.1195 H            1    LIG   0.0000
  36 H            1.0770    -7.0043     1.1522 H            1    LIG   0.0000
  37 H            1.7812    -4.7336     1.0993 H            1    LIG   0.0000
  38 H            2.0000     1.0000     1.0000 H            1    LIG   0.0000
  39 H            2.9334     2.6418    -0.1473 H            1    LIG   0.0000
  40 H            4.2852     2.5585    -2.1241 H            1    LIG   0.0000
  41 H            3.3139     3.0300    -4.2551 H            1    LIG   0.0000
  42 H            0.9970     3.5850    -4.4254 H            1    LIG   0.0000
  43 H           -0.3615     3.6726    -2.4529 H            1    LIG   0.0000
  44 H           -0.1083     5.4593    -1.1911 H            1    LIG   0.0000
  45 H           -1.6354     5.5558    -0.6206 H            1    LIG   0.0000
  46 H           -0.4120     6.2637     0.1973 H            1    LIG   0.0000
  47 H           -2.2928     5.5232     2.0479 H            1    LIG   0.0000
  48 H           -3.1244     4.6233     4.0977 H            1    LIG   0.0000
  49 H           -2.3674     2.4599     4.8267 H            1    LIG   0.0000
  50 H           -0.7996     1.2578     3.4883 H            1    LIG   0.0000
@<TRIPOS>BOND
   1        1        2 1
   2        2        3 ar
   3        3        4 ar
   4        4        5 ar
   5        5        6 ar
   6        6        7 ar
   7        7        2 ar
   8        7        8 1
   9        8        9 2
  10        9       10 1
  11       10       11 1
  12       11       12 2
  13       12       13 1
  14       13       14 2
  15       14       15 1
  16       15       16 ar
  17       16       17 ar
  18       17       18 ar
  19       18       19 ar
  20       19       20 ar
  21       20       15 ar
  22       14       21 1
  23       21       22 1
  24       21       23 1
  25       23       24 ar
  26       24       25 ar
  27       25       26 ar
  28       26       27 ar
  29       27       28 ar
  30       28       13 1
  31       28       23 ar
  32       11       29 1
  33       29       30 2
  34       29       31 1
  35       31        9 1
  36       31        6 1
  37        1       32 1
  38        1       33 1
  39        1       34 1
  40        3       35 1
  41        4       36 1
  42        5       37 1
  43       12       38 1
  44       16       39 1
  45       17       40 1
  46       18       41 1
  47       19       42 1
  48       20       43 1
  49       22       44 1
  50       22       45 1
  51       22       46 1
  52       24       47 1
  53       25       48 1
  54       26       49 1
  55       27       50 1

@<TRIPOS>MOLECULE

  50   55
SMALL
USER_CHARGES
@<TRIPOS>ATOM
   1 C1          -3.3741    -5.8820     1.0435 C.3          1    LIG   0.0000
   2 C2          -1.8912    -5.5513     1.0638 C.ar         1    LIG   0.0000
   3 C3          -0.9600    -6.5829     1.1029 C.ar         1    LIG   0.0000
   4 C4           0.3961    -6.2727     1.1186 C.ar         1    LIG   0.0000
   5 C5           0.8033    -4.9422     1.0874 C.ar         1    LIG   0.0000
   6 C6          -0.1136    -3.8899     1.0401 C.ar         1    LIG   0.0000
   7 C7          -1.4481    -4.2373     1.0368 C.ar         1    LIG   0.0000
   8 N8          -2.1892    -3.0959     1.0160 N.2          1    LIG   0.0000
   9 C9          -1.3293    -2.1093     0.9962 C.2          1    LIG   0.0000
  10 S10         -1.3687    -0.3778     1.0041 S.3          1    LIG   0.0000
  11 C11          0.3396    -0.1438     1.0000 C.2          1    LIG   0.0000
  12 C12          1.0000     1.0000     1.0000 C.2          1    LIG   0.0000
  13 C13          0.2752     2.2554     1.0000 C.2          1    LIG   0.0000
  14 C14          0.3594     3.2165     0.0413 C.2          1    LIG   0.0000
  15 C15          1.1835     3.1633    -1.1509 C.ar         1    LIG   0.0000
  16 C16          2.3973     3.8420    -1.1793 C.ar         1    LIG   0.0000
  17 C17          3.1810     3.7861    -2.3271 C.ar         1    LIG   0.0000
  18 C18          2.7486     3.0568    -3.4306 C.ar         1    LIG   0.0000
  19 C19          1.5334     2.3808    -3.3932 C.ar         1    LIG   0.0000
  20 C20          0.7432     2.4321    -2.2493 C.ar         1    LIG   0.0000
  21 N21         -0.4646     4.2383     0.3988 N.pl3        1    LIG   0.0000
  22 C22         -0.6717     5.4786    -0.3651 C.3          1    LIG   0.0000
  23 C23         -1.0682     3.9182     1.5788 C.ar         1    LIG   0.0000
  24 C24         -1.9807     4.6241     2.3548 C.ar         1    LIG   0.0000
  25 C25         -2.4682     4.1045     3.5496 C.ar         1    LIG   0.0000
  26 C26         -2.0302     2.8534     3.9715 C.ar         1    LIG   0.0000
  27 C27         -1.1163     2.1571     3.1866 C.ar         1    LIG   0.0000
  28 C28         -0.6319     2.6817     1.9915 C.ar         1    LIG   0.0000
  29 C29          0.8885    -1.4807     1.0000 C.2          1    LIG   0.0000
  30 O30          2.0909    -1.6851     1.0068 O.2          1    LIG   0.0000
  31 N31         -0.0437    -2.5214     1.0029 N.pl3        1    LIG   0.0000
  32 H           -3.4947    -6.8744     1.0681 H            1    LIG   0.0000
  33 H           -3.8179    -5.4724     1.8406 H            1    LIG   0.0000
  34 H           -3.7857    -5.5168     0.2085 H            1    LIG   0.0000
  35 H           -1.2614    -7.5363     1.1195 H            1    LIG   0.0000
  36 H            1.0770    -7.0043     1.1522 H            1    LIG   0.0000
  37 H            1.7812    -4.7336     1.0993 H            1    LIG   0.0000
  38 H            2.0000     1.0000     1.0000 H            1    LIG   0.0000
  39 H            2.7032     4.3644    -0.3834 H            1    LIG   0.0000
  40 H            4.0554     4.2703    -2.3594 H            1    LIG   0.0000
  41 H            3.3143     3.0184    -4.2544 H            1    LIG   0.0000
  42 H            1.2278     1.8578    -4.1888 H            1    LIG   0.0000
  43 H           -0.1316     1.9487    -2.2171 H            1    LIG   0.0000
  44 H           -0.1083     5.4593    -1.1911 H            1    LIG   0.0000
  45 H           -1.6354     5.5558    -0.6206 H            1    LIG   0.0000
  46 H           -0.4120     6.2637     0.1973 H            1    LIG   0.0000
  47 H           -2.2928     5.5232     2.0479 H            1    LIG   0.0000
  48 H           -3.1244     4.6233     4.0977 H            1    LIG   0.0000
  49 H           -2.3674     2.4599     4.8267 H            1    LIG   0.0000
  50 H           -0.7996     1.2578     3.4883 H            1    LIG   0.0000
@<TRIPOS>BOND
   1        1        2 1
   2        2        3 ar
   3        3        4 ar
   4        4        5 ar
   5        5        6 ar
   6        6        7 ar
   7        7        2 ar
   8        7        8 1
   9        8        9 2
  10        9       10 1
  11       10       11 1
  12       11       12 2
  13       12       13 1
  14       13       14 2
  15       14       15 1
  16       15       16 ar
  17       16       17 ar
  18       17       18 ar
  19       18       19 ar
  20       19       20 ar
  21       20       15 ar
  22       14       21 1
  23       21       22 1
  24       21       23 1
  25       23       24 ar
  26       24       25 ar
  27       25       26 ar
  28       26       27 ar
  29       27       28 ar
  30       28       13 1
  31       28       23 ar
  32       11       29 1
  33       29       30 2
  34       29       31 1
  35       31        9 1
  36       31        6 1
  37        1       32 1
  38        1       33 1
  39        1       34 1
  40        3       35 1
  41        4       36 1
  42        5       37 1
  43       12       38 1
  44       16       39 1
  45       17       40 1
  46       18       41 1
  47       19       42 1
  48       20       43 1
  49       22       44 1
  50       22       45 1
  51       22       46 1
  52       24       47 1
  53       25       48 1
  54       26       49 1
  55       27       50 1

@<TRIPOS>MOLECULE

  50   55
SMALL
USER_CHARGES
@<TRIPOS>ATOM
   1 C1          -3.3741    -5.8820     1.0435 C.3          1    LIG   0.0000
   2 C2          -1.8912    -5.5513     1.0638 C.ar         1    LIG   0.0000
   3 C3          -0.9600    -6.5829     1.1029 C.ar         1    LIG   0.0000
   4 C4           0.3961    -6.2727     1.1186 C.ar         1    LIG   0.0000
   5 C5           0.8033    -4.9422     1.0874 C.ar         1    LIG   0.0000
   6 C6          -0.1136    -3.8899     1.0401 C.ar         1    LIG   0.0000
   7 C7          -1.4481    -4.2373     1.0368 C.ar         1    LIG   0.0000
   8 N8          -2.1892    -3.0959     1.0160 N.2          1    LIG   0.0000
   9 C9          -1.3293    -2.1093     0.9962 C.2          1    LIG   0.0000
  10 S10         -1.3687    -0.3778     1.0041 S.3          1    LIG   0.0000
  11 C11          0.3396    -0.1438     1.0000 C.2          1    LIG   0.0000
  12 C12          1.0000     1.0000     1.0000 C.2          1    LIG   0.0000
  13 C13          0.2752     2.2554     1.0000 C.2          1    LIG   0.0000
  14 C14          0.3594     3.2165     0.0413 C.2          1    LIG   0.0000
  15 C15          1.1835     3.1633    -1.1509 C.ar         1    LIG   0.0000
  16 C16          0.6791     3.6362    -2.3579 C.ar         1    LIG   0.0000
  17 C17          1.4762     3.5806    -3.4964 C.ar         1    LIG   0.0000
  18 C18          2.7631     3.0566    -3.4206 C.ar         1    LIG   0.0000
  19 C19          3.2594     2.5862    -2.2092 C.ar         1    LIG   0.0000
  20 C20          2.4685     2.6375    -1.0658 C.ar         1    LIG   0.0000
  21 N21         -0.4646     4.2383     0.3988 N.pl3        1    LIG   0.0000
  22 C22         -0.6717     5.4786    -0.3651 C.3          1    LIG   0.0000
  23 C23         -1.0682     3.9182     1.5788 C.ar         1    LIG   0.0000
  24 C24         -1.9807     4.6241     2.3548 C.ar         1    LIG   0.0000
  25 C25         -2.4682     4.1045     3.5496 C.ar         1    LIG   0.0000
  26 C26         -2.0302     2.8534     3.9715 C.ar         1    LIG   0.0000
  27 C27         -1.1163     2.1571     3.1866 C.ar         1    LIG   0.0000
  28 C28         -0.6319     2.6817     1.9915 C.ar         1    LIG   0.0000
  29 C29          0.8885    -1.4807     1.0000 C.2          1    LIG   0.0000
  30 O30          2.0909    -1.6851     1.0068 O.2          1    LIG   0.0000
  31 N31         -0.0437    -2.5214     1.0029 N.pl3        1    LIG   0.0000
  32 H           -3.4947    -6.8744     1.0681 H            1    LIG   0.0000
  33 H           -3.8179    -5.4724     1.8406 H            1    LIG   0.0000
  34 H           -3.7857    -5.5168     0.2085 H            1    LIG   0.0000
  35 H           -1.2614    -7.5363     1.1195 H            1    LIG   0.0000
  36 H            1.0770    -7.0043     1.1522 H            1    LIG   0.0000
  37 H            1.7812    -4.7336     1.0993 H            1    LIG   0.0000
  38 H            2.0000     1.0000     1.0000 H            1    LIG   0.0000
  39 H           -0.2463     4.0119    -2.4065 H            1    LIG   0.0000
  40 H            1.1243     3.9173    -4.3698 H            1    LIG   0.0000
  41 H            3.3338     3.0180    -4.2409 H            1    LIG   0.0000
  42 H            4.1851     2.2110    -2.1603 H            1    LIG   0.0000
  43 H            2.8199     2.3001    -0.1925 H            1    LIG   0.0000
  44 H           -0.1083     5.4593    -1.1911 H            1    LIG   0.0000
  45 H           -1.6354     5.5558    -0.6206 H            1    LIG   0.0000
  46 H           -0.4120     6.2637     0.1973 H            1    LIG   0.0000
  47 H           -2.2928     5.5232     2.0479 H            1    LIG   0.0000
  48 H           -3.1244     4.6233     4.0977 H            1    LIG   0.0000
  49 H           -2.3674     2.4599     4.8267 H            1    LIG   0.0000
  50 H           -0.7996     1.2578     3.4883 H            1    LIG   0.0000
@<TRIPOS>BOND
   1        1        2 1
   2        2        3 ar
   3        3        4 ar
   4        4        5 ar
   5        5        6 ar
   6        6        7 ar
   7        7        2 ar
   8        7        8 1
   9        8        9 2
  10        9       10 1
  11       10       11 1
  12       11       12 2
  13       12       13 1
  14       13       14 2
  15       14       15 1
  16       15       16 ar
  17       16       17 ar
  18       17       18 ar
  19       18       19 ar
  20       19       20 ar
  21       20       15 ar
  22       14       21 1
  23       21       22 1
  24       21       23 1
  25       23       24 ar
  26       24       25 ar
  27       25       26 ar
  28       26       27 ar
  29       27       28 ar
  30       28       13 1
  31       28       23 ar
  32       11       29 1
  33       29       30 2
  34       29       31 1
  35       31        9 1
  36       31        6 1
  37        1       32 1
  38        1       33 1
  39        1       34 1
  40        3       35 1
  41        4       36 1
  42        5       37 1
  43       12       38 1
  44       16       39 1
  45       17       40 1
  46       18       41 1
  47       19       42 1
  48       20       43 1
  49       22       44 1
  50       22       45 1
  51       22       46 1
  52       24       47 1
  53       25       48 1
  54       26       49 1
  55       27       50 1

