@<TRIPOS>MOLECULE
*****
 50 55 0 0 0
SMALL
USER_CHARGES

@<TRIPOS>ATOM
      1 C1         -3.3741   -5.8820    1.0435 C.3     1  LIG1        0.0000
      2 C2         -1.8912   -5.5513    1.0638 C.3     1  LIG1        0.0000
      3 C3         -0.9600   -6.5829    1.1029 C.3     1  LIG1        0.0000
      4 C4          0.3961   -6.2727    1.1186 C.3     1  LIG1        0.0000
      5 C5          0.8033   -4.9422    1.0874 C.3     1  LIG1        0.0000
      6 C6         -0.1136   -3.8899    1.0401 C.3     1  LIG1        0.0000
      7 C7         -1.4481   -4.2373    1.0368 C.3     1  LIG1        0.0000
      8 N8         -2.1892   -3.0959    1.0160 N.2     1  LIG1        0.0000
      9 C9         -1.3293   -2.1093    0.9962 C.2     1  LIG1        0.0000
     10 S10        -1.3687   -0.3778    1.0041 S.3     1  LIG1        0.0000
     11 C11         0.3396   -0.1438    1.0000 C.2     1  LIG1        0.0000
     12 C12         1.0000    1.0000    1.0000 C.2     1  LIG1        0.0000
     13 C13         0.2752    2.2554    1.0000 C.2     1  LIG1        0.0000
     14 C14        -0.1199    2.9398    2.1070 C.2     1  LIG1        0.0000
     15 C15         0.1101    2.5435    3.4830 C.3     1  LIG1        0.0000
     16 C16         1.3898    2.1808    3.8901 C.3     1  LIG1        0.0000
     17 C17         1.6011    1.8014    5.2114 C.3     1  LIG1        0.0000
     18 C18         0.5390    1.7878    6.1104 C.3     1  LIG1        0.0000
     19 C19        -0.7375    2.1524    5.6946 C.3     1  LIG1        0.0000
     20 C20        -0.9577    2.5325    4.3745 C.3     1  LIG1        0.0000
     21 N21        -0.7711    4.0613    1.6960 N.pl3   1  LIG1        0.0000
     22 C22        -1.3598    5.0813    2.5780 C.3     1  LIG1        0.0000
     23 C23        -0.7823    4.0833    0.3328 C.3     1  LIG1        0.0000
     24 C24        -1.3241    5.0032   -0.5579 C.3     1  LIG1        0.0000
     25 C25        -1.2269    4.8212   -1.9337 C.3     1  LIG1        0.0000
     26 C26        -0.5736    3.6943   -2.4221 C.3     1  LIG1        0.0000
     27 C27        -0.0363    2.7806   -1.5207 C.3     1  LIG1        0.0000
     28 C28        -0.1362    2.9679   -0.1449 C.3     1  LIG1        0.0000
     29 C29         0.8885   -1.4807    1.0000 C.2     1  LIG1        0.0000
     30 O30         2.0909   -1.6851    1.0068 O.2     1  LIG1        0.0000
     31 N31        -0.0437   -2.5214    1.0029 N.am    1  LIG1        0.0000
     32 H          -3.4947   -6.8744    1.0681 H       1  LIG1        0.0000
     33 H          -3.8179   -5.4724    1.8406 H       1  LIG1        0.0000
     34 H          -3.7857   -5.5168    0.2085 H       1  LIG1        0.0000
     35 H          -1.2614   -7.5363    1.1195 H       1  LIG1        0.0000
     36 H           1.0770   -7.0043    1.1522 H       1  LIG1        0.0000
     37 H           1.7812   -4.7336    1.0993 H       1  LIG1        0.0000
     38 H           2.0000    1.0000    1.0000 H       1  LIG1        0.0000
     39 H           2.1494    2.1927    3.2398 H       1  LIG1        0.0000
     40 H           2.5167    1.5384    5.5156 H       1  LIG1        0.0000
     41 H           0.6940    1.5147    7.0597 H       1  LIG1        0.0000
     42 H          -1.4971    2.1413    6.3449 H       1  LIG1        0.0000
     43 H          -1.8733    2.7949    4.0700 H       1  LIG1        0.0000
     44 H          -1.2116    4.8223    3.5324 H       1  LIG1        0.0000
     45 H          -0.9266    5.9651    2.4013 H       1  LIG1        0.0000
     46 H          -2.3414    5.1497    2.3997 H       1  LIG1        0.0000
     47 H          -1.7930    5.8118   -0.2025 H       1  LIG1        0.0000
     48 H          -1.6212    5.4911   -2.5628 H       1  LIG1        0.0000
     49 H          -0.4913    3.5431   -3.4072 H       1  LIG1        0.0000
     50 H           0.4332    1.9696   -1.8697 H       1  LIG1        0.0000
@<TRIPOS>BOND
     1     1     2    1
     2     2     3   ar
     3     3     4   ar
     4     4     5   ar
     5     5     6   ar
     6     6     7   ar
     7     7     2   ar
     8     7     8    1
     9     8     9    2
    10     9    10    1
    11    10    11    1
    12    11    12    2
    13    12    13    1
    14    13    14    2
    15    14    15    1
    16    15    16   ar
    17    16    17   ar
    18    17    18   ar
    19    18    19   ar
    20    19    20   ar
    21    20    15   ar
    22    14    21    1
    23    21    22    1
    24    21    23    1
    25    23    24   ar
    26    24    25   ar
    27    25    26   ar
    28    26    27   ar
    29    27    28   ar
    30    28    13    1
    31    28    23   ar
    32    11    29    1
    33    29    30    2
    34    29    31   am
    35    31     9    1
    36    31     6    1
    37     1    32    1
    38     1    33    1
    39     1    34    1
    40     3    35    1
    41     4    36    1
    42     5    37    1
    43    12    38    1
    44    16    39    1
    45    17    40    1
    46    18    41    1
    47    19    42    1
    48    20    43    1
    49    22    44    1
    50    22    45    1
    51    22    46    1
    52    24    47    1
    53    25    48    1
    54    26    49    1
    55    27    50    1
