@<TRIPOS>MOLECULE
*****
 50 55 0 0 0
SMALL
USER_CHARGES

@<TRIPOS>ATOM
      1 C1         -3.3741   -5.8820    1.0435 C.3     1  LIG1        0.0000
      2 C2         -1.8912   -5.5513    1.0638 C.3     1  LIG1        0.0000
      3 C3         -0.9600   -6.5829    1.1029 C.3     1  LIG1        0.0000
      4 C4          0.3961   -6.2727    1.1186 C.3     1  LIG1        0.0000
      5 C5          0.8033   -4.9422    1.0874 C.3     1  LIG1        0.0000
      6 C6         -0.1136   -3.8899    1.0401 C.3     1  LIG1        0.0000
      7 C7         -1.4481   -4.2373    1.0368 C.3     1  LIG1        0.0000
      8 N8         -2.1892   -3.0959    1.0160 N.2     1  LIG1        0.0000
      9 C9         -1.3293   -2.1093    0.9962 C.2     1  LIG1        0.0000
     10 S10        -1.3687   -0.3778    1.0041 S.3     1  LIG1        0.0000
     11 C11         0.3396   -0.1438    1.0000 C.2     1  LIG1        0.0000
     12 C12         1.0000    1.0000    1.0000 C.2     1  LIG1        0.0000
     13 C13         0.2752    2.2554    1.0000 C.2     1  LIG1        0.0000
     14 C14         0.3594    3.2165    1.9587 C.2     1  LIG1        0.0000
     15 C15         1.1851    3.1642    3.1498 C.3     1  LIG1        0.0000
     16 C16         1.1456    2.0383    3.9657 C.3     1  LIG1        0.0000
     17 C17         1.9403    1.9970    5.1065 C.3     1  LIG1        0.0000
     18 C18         2.7634    3.0740    5.4211 C.3     1  LIG1        0.0000
     19 C19         2.7968    4.1959    4.5993 C.3     1  LIG1        0.0000
     20 C20         2.0046    4.2456    3.4567 C.3     1  LIG1        0.0000
     21 N21        -0.4694    4.2355    1.6043 N.pl3   1  LIG1        0.0000
     22 C22        -0.6762    5.4760    2.3681 C.3     1  LIG1        0.0000
     23 C23        -1.0710    3.9166    0.4231 C.3     1  LIG1        0.0000
     24 C24        -1.9974    4.6145   -0.3436 C.3     1  LIG1        0.0000
     25 C25        -2.4951    4.0890   -1.5317 C.3     1  LIG1        0.0000
     26 C26        -2.0536    2.8398   -1.9559 C.3     1  LIG1        0.0000
     27 C27        -1.1269    2.1509   -1.1794 C.3     1  LIG1        0.0000
     28 C28        -0.6319    2.6817    0.0085 C.3     1  LIG1        0.0000
     29 C29         0.8885   -1.4807    1.0000 C.2     1  LIG1        0.0000
     30 O30         2.0909   -1.6851    1.0068 O.2     1  LIG1        0.0000
     31 N31        -0.0437   -2.5214    1.0029 N.am    1  LIG1        0.0000
     32 H          -3.4947   -6.8744    1.0681 H       1  LIG1        0.0000
     33 H          -3.8179   -5.4724    1.8406 H       1  LIG1        0.0000
     34 H          -3.7857   -5.5168    0.2085 H       1  LIG1        0.0000
     35 H          -1.2614   -7.5363    1.1195 H       1  LIG1        0.0000
     36 H           1.0770   -7.0043    1.1522 H       1  LIG1        0.0000
     37 H           1.7812   -4.7336    1.0993 H       1  LIG1        0.0000
     38 H           2.0000    1.0000    1.0000 H       1  LIG1        0.0000
     39 H           0.5524    1.2672    3.7347 H       1  LIG1        0.0000
     40 H           1.9201    1.1930    5.7008 H       1  LIG1        0.0000
     41 H           3.3336    3.0414    6.2420 H       1  LIG1        0.0000
     42 H           3.3904    4.9669    4.8298 H       1  LIG1        0.0000
     43 H           2.0240    5.0498    2.8626 H       1  LIG1        0.0000
     44 H          -0.1146    5.4557    3.1952 H       1  LIG1        0.0000
     45 H          -0.4142    6.2608    1.8065 H       1  LIG1        0.0000
     46 H          -1.6403    5.5545    2.6216 H       1  LIG1        0.0000
     47 H          -2.3122    5.5120   -0.0350 H       1  LIG1        0.0000
     48 H          -3.1611    4.6021   -2.0732 H       1  LIG1        0.0000
     49 H          -2.3974    2.4426   -2.8068 H       1  LIG1        0.0000
     50 H          -0.8087    1.2525   -1.4822 H       1  LIG1        0.0000
@<TRIPOS>BOND
     1     1     2    1
     2     2     3   ar
     3     3     4   ar
     4     4     5   ar
     5     5     6   ar
     6     6     7   ar
     7     7     2   ar
     8     7     8    1
     9     8     9    2
    10     9    10    1
    11    10    11    1
    12    11    12    2
    13    12    13    1
    14    13    14    2
    15    14    15    1
    16    15    16   ar
    17    16    17   ar
    18    17    18   ar
    19    18    19   ar
    20    19    20   ar
    21    20    15   ar
    22    14    21    1
    23    21    22    1
    24    21    23    1
    25    23    24   ar
    26    24    25   ar
    27    25    26   ar
    28    26    27   ar
    29    27    28   ar
    30    28    13    1
    31    28    23   ar
    32    11    29    1
    33    29    30    2
    34    29    31   am
    35    31     9    1
    36    31     6    1
    37     1    32    1
    38     1    33    1
    39     1    34    1
    40     3    35    1
    41     4    36    1
    42     5    37    1
    43    12    38    1
    44    16    39    1
    45    17    40    1
    46    18    41    1
    47    19    42    1
    48    20    43    1
    49    22    44    1
    50    22    45    1
    51    22    46    1
    52    24    47    1
    53    25    48    1
    54    26    49    1
    55    27    50    1
