@<TRIPOS>MOLECULE

  69   72
SMALL
USER_CHARGES
@<TRIPOS>ATOM
   1 C1           8.7115     0.6067    -6.1114 C.3          1    LIG   0.0000
   2 C2           7.8328     0.4730    -4.8784 C.2          1    LIG   0.0000
   3 C3           6.6596    -0.3011    -4.7707 C.2          1    LIG   0.0000
   4 C4           6.2167    -0.1157    -3.4976 C.2          1    LIG   0.0000
   5 C5           4.9742    -0.7385    -2.8811 C.3          1    LIG   0.0000
   6 N6           7.0830     0.7312    -2.8771 N.pl3        1    LIG   0.0000
   7 C7           6.9800     1.2003    -1.4877 C.3          1    LIG   0.0000
   8 C8           6.6190     2.6765    -1.4768 C.2          1    LIG   0.0000
   9 N9           7.4560     3.6856    -1.4799 N.2          1    LIG   0.0000
  10 N10          6.7842     4.8230    -1.4650 N.2          1    LIG   0.0000
  11 C11          5.5003     4.5622    -1.4602 C.2          1    LIG   0.0000
  12 N12          4.4650     5.4998    -1.4551 N.pl3        1    LIG   0.0000
  13 C13          3.3193     5.2820    -2.2303 C.2          1    LIG   0.0000
  14 C14          3.2996     4.7494    -3.5368 C.2          1    LIG   0.0000
  15 C15          1.9886     4.7146    -3.9008 C.2          1    LIG   0.0000
  16 N16          1.2783     5.2112    -2.8505 N.pl3        1    LIG   0.0000
  17 C17         -0.1846     5.3536    -2.8205 C.3          1    LIG   0.0000
  18 N18          2.0854     5.5404    -1.8683 N.2          1    LIG   0.0000
  19 N19          5.3665     3.2075    -1.4659 N.pl3        1    LIG   0.0000
  20 C20          4.1046     2.4553    -1.4576 C.3          1    LIG   0.0000
  21 C21          3.6831     2.1886    -0.0218 C.3          1    LIG   0.0000
  22 C22          2.3775     1.4103    -0.0133 C.ar         1    LIG   0.0000
  23 C23          2.4069     0.0197    -0.0206 C.ar         1    LIG   0.0000
  24 C24          1.2073    -0.6841    -0.0121 C.ar         1    LIG   0.0000
  25 C25         -0.0116    -0.0145     0.0026 C.ar         1    LIG   0.0000
  26 C26         -0.0175     1.3767     0.0098 C.ar         1    LIG   0.0000
  27 N27         -1.2385     2.0615     0.0249 N.am         1    LIG   0.0000
  28 C28         -2.4163     1.3618     0.0328 C.2          1    LIG   0.0000
  29 O29         -2.4675     0.2790     0.5477 O.2          1    LIG   0.0000
  30 O30         -3.4866     1.8746    -0.5216 O.3          1    LIG   0.0000
  31 C31         -4.6538     1.0684    -0.4586 C.3          1    LIG   0.0000
  32 C32         -5.8057     1.7904    -1.1385 C.3          1    LIG   0.0000
  33 C33         -4.3960    -0.2524    -1.1653 C.3          1    LIG   0.0000
  34 C34         -5.0091     0.8041     0.9954 C.3          1    LIG   0.0000
  35 C35          1.1700     2.1005     0.0019 C.ar         1    LIG   0.0000
  36 N36          8.0304     1.0612    -3.7231 N.2          1    LIG   0.0000
  37 H            8.3323     0.0529    -6.8526 H            1    LIG   0.0000
  38 H            8.7446     1.5652    -6.3947 H            1    LIG   0.0000
  39 H            9.6357     0.2901    -5.8979 H            1    LIG   0.0000
  40 H            6.2410    -0.8674    -5.4806 H            1    LIG   0.0000
  41 H            4.5218    -1.3194    -3.5577 H            1    LIG   0.0000
  42 H            5.2359    -1.2906    -2.0894 H            1    LIG   0.0000
  43 H            4.3479    -0.0151    -2.5907 H            1    LIG   0.0000
  44 H            7.8569     1.0681    -1.0255 H            1    LIG   0.0000
  45 H            6.2707     0.6801    -1.0120 H            1    LIG   0.0000
  46 H            4.5419     6.3265    -0.8978 H            1    LIG   0.0000
  47 H            4.0856     4.4580    -4.0820 H            1    LIG   0.0000
  48 H            1.6188     4.3879    -4.7706 H            1    LIG   0.0000
  49 H           -0.5684     5.0341    -3.6869 H            1    LIG   0.0000
  50 H           -0.5572     4.8084    -2.0696 H            1    LIG   0.0000
  51 H           -0.4232     6.3152    -2.6847 H            1    LIG   0.0000
  52 H            4.2317     1.5858    -1.9347 H            1    LIG   0.0000
  53 H            3.3958     2.9885    -1.9195 H            1    LIG   0.0000
  54 H            4.3920     1.6555     0.4401 H            1    LIG   0.0000
  55 H            3.5560     3.0582     0.4553 H            1    LIG   0.0000
  56 H            3.2798    -0.4681    -0.0318 H            1    LIG   0.0000
  57 H            1.2213    -1.6840    -0.0167 H            1    LIG   0.0000
  58 H           -0.8712    -0.5255     0.0078 H            1    LIG   0.0000
  59 H           -1.2509     3.0614     0.0299 H            1    LIG   0.0000
  60 H           -6.6277     1.2226    -1.0941 H            1    LIG   0.0000
  61 H           -5.9753     2.6594    -0.6736 H            1    LIG   0.0000
  62 H           -5.5719     1.9643    -2.0951 H            1    LIG   0.0000
  63 H           -5.2180    -0.8202    -1.1210 H            1    LIG   0.0000
  64 H           -4.1623    -0.0785    -2.1220 H            1    LIG   0.0000
  65 H           -3.6382    -0.7274    -0.7180 H            1    LIG   0.0000
  66 H           -5.8311     0.2363     1.0398 H            1    LIG   0.0000
  67 H           -4.2513     0.3291     1.4427 H            1    LIG   0.0000
  68 H           -5.1787     1.6730     1.4604 H            1    LIG   0.0000
  69 H            1.1560     3.1004     0.0070 H            1    LIG   0.0000
@<TRIPOS>BOND
   1        1        2 1
   2        2        3 1
   3        3        4 2
   4        4        5 1
   5        4        6 1
   6        6        7 1
   7        7        8 1
   8        8        9 2
   9        9       10 1
  10       10       11 2
  11       11       12 1
  12       12       13 1
  13       13       14 1
  14       14       15 2
  15       15       16 1
  16       16       17 1
  17       16       18 1
  18       18       13 2
  19       11       19 1
  20       19        8 1
  21       19       20 1
  22       20       21 1
  23       21       22 1
  24       22       23 ar
  25       23       24 ar
  26       24       25 ar
  27       25       26 ar
  28       26       27 1
  29       27       28 am
  30       28       29 2
  31       28       30 1
  32       30       31 1
  33       31       32 1
  34       31       33 1
  35       31       34 1
  36       26       35 ar
  37       35       22 ar
  38        6       36 1
  39       36        2 2
  40        1       37 1
  41        1       38 1
  42        1       39 1
  43        3       40 1
  44        5       41 1
  45        5       42 1
  46        5       43 1
  47        7       44 1
  48        7       45 1
  49       12       46 1
  50       14       47 1
  51       15       48 1
  52       17       49 1
  53       17       50 1
  54       17       51 1
  55       20       52 1
  56       20       53 1
  57       21       54 1
  58       21       55 1
  59       23       56 1
  60       24       57 1
  61       25       58 1
  62       27       59 1
  63       32       60 1
  64       32       61 1
  65       32       62 1
  66       33       63 1
  67       33       64 1
  68       33       65 1
  69       34       66 1
  70       34       67 1
  71       34       68 1
  72       35       69 1

@<TRIPOS>MOLECULE

  69   72
SMALL
USER_CHARGES
@<TRIPOS>ATOM
   1 C1           8.7115     0.6067    -6.1114 C.3          1    LIG   0.0000
   2 C2           7.8328     0.4730    -4.8784 C.2          1    LIG   0.0000
   3 C3           6.6596    -0.3011    -4.7707 C.2          1    LIG   0.0000
   4 C4           6.2167    -0.1157    -3.4976 C.2          1    LIG   0.0000
   5 C5           4.9742    -0.7385    -2.8811 C.3          1    LIG   0.0000
   6 N6           7.0830     0.7312    -2.8771 N.pl3        1    LIG   0.0000
   7 C7           6.9800     1.2003    -1.4877 C.3          1    LIG   0.0000
   8 C8           6.6190     2.6765    -1.4768 C.2          1    LIG   0.0000
   9 N9           7.4560     3.6856    -1.4799 N.2          1    LIG   0.0000
  10 N10          6.7842     4.8230    -1.4650 N.2          1    LIG   0.0000
  11 C11          5.5003     4.5622    -1.4602 C.2          1    LIG   0.0000
  12 N12          4.4650     5.4998    -1.4551 N.pl3        1    LIG   0.0000
  13 C13          3.9508     5.9684    -0.2398 C.2          1    LIG   0.0000
  14 C14          4.3850     5.5738     1.0435 C.2          1    LIG   0.0000
  15 C15          3.6170     6.2727     1.9234 C.2          1    LIG   0.0000
  16 N16          2.7694     7.0370     1.1807 N.pl3        1    LIG   0.0000
  17 C17          1.7608     7.9512     1.7359 C.3          1    LIG   0.0000
  18 N18          2.9843     6.8440    -0.1003 N.2          1    LIG   0.0000
  19 N19          5.3665     3.2075    -1.4659 N.pl3        1    LIG   0.0000
  20 C20          4.1046     2.4553    -1.4576 C.3          1    LIG   0.0000
  21 C21          3.6831     2.1886    -0.0218 C.3          1    LIG   0.0000
  22 C22          2.3775     1.4103    -0.0133 C.ar         1    LIG   0.0000
  23 C23          2.4069     0.0197    -0.0206 C.ar         1    LIG   0.0000
  24 C24          1.2073    -0.6841    -0.0121 C.ar         1    LIG   0.0000
  25 C25         -0.0116    -0.0145     0.0026 C.ar         1    LIG   0.0000
  26 C26         -0.0175     1.3767     0.0098 C.ar         1    LIG   0.0000
  27 N27         -1.2385     2.0615     0.0249 N.am         1    LIG   0.0000
  28 C28         -2.4163     1.3618     0.0328 C.2          1    LIG   0.0000
  29 O29         -2.4675     0.2790     0.5477 O.2          1    LIG   0.0000
  30 O30         -3.4866     1.8746    -0.5216 O.3          1    LIG   0.0000
  31 C31         -4.6538     1.0684    -0.4586 C.3          1    LIG   0.0000
  32 C32         -5.8057     1.7904    -1.1385 C.3          1    LIG   0.0000
  33 C33         -4.3960    -0.2524    -1.1653 C.3          1    LIG   0.0000
  34 C34         -5.0091     0.8041     0.9954 C.3          1    LIG   0.0000
  35 C35          1.1700     2.1005     0.0019 C.ar         1    LIG   0.0000
  36 N36          8.0304     1.0612    -3.7231 N.2          1    LIG   0.0000
  37 H            8.3323     0.0529    -6.8526 H            1    LIG   0.0000
  38 H            8.7446     1.5652    -6.3947 H            1    LIG   0.0000
  39 H            9.6357     0.2901    -5.8979 H            1    LIG   0.0000
  40 H            6.2410    -0.8674    -5.4806 H            1    LIG   0.0000
  41 H            4.5218    -1.3194    -3.5577 H            1    LIG   0.0000
  42 H            5.2359    -1.2906    -2.0894 H            1    LIG   0.0000
  43 H            4.3479    -0.0151    -2.5907 H            1    LIG   0.0000
  44 H            7.8569     1.0681    -1.0255 H            1    LIG   0.0000
  45 H            6.2707     0.6801    -1.0120 H            1    LIG   0.0000
  46 H            4.0909     5.8363    -2.3192 H            1    LIG   0.0000
  47 H            5.1070     4.9171     1.2612 H            1    LIG   0.0000
  48 H            3.6657     6.2326     2.9215 H            1    LIG   0.0000
  49 H            1.7952     7.9185     2.7347 H            1    LIG   0.0000
  50 H            1.9493     8.8832     1.4262 H            1    LIG   0.0000
  51 H            0.8520     7.6738     1.4243 H            1    LIG   0.0000
  52 H            4.2317     1.5858    -1.9347 H            1    LIG   0.0000
  53 H            3.3958     2.9885    -1.9195 H            1    LIG   0.0000
  54 H            4.3920     1.6555     0.4401 H            1    LIG   0.0000
  55 H            3.5560     3.0582     0.4553 H            1    LIG   0.0000
  56 H            3.2798    -0.4681    -0.0318 H            1    LIG   0.0000
  57 H            1.2213    -1.6840    -0.0167 H            1    LIG   0.0000
  58 H           -0.8712    -0.5255     0.0078 H            1    LIG   0.0000
  59 H           -1.2509     3.0614     0.0299 H            1    LIG   0.0000
  60 H           -6.6277     1.2226    -1.0941 H            1    LIG   0.0000
  61 H           -5.9753     2.6594    -0.6736 H            1    LIG   0.0000
  62 H           -5.5719     1.9643    -2.0951 H            1    LIG   0.0000
  63 H           -5.2180    -0.8202    -1.1210 H            1    LIG   0.0000
  64 H           -4.1623    -0.0785    -2.1220 H            1    LIG   0.0000
  65 H           -3.6382    -0.7274    -0.7180 H            1    LIG   0.0000
  66 H           -5.8311     0.2363     1.0398 H            1    LIG   0.0000
  67 H           -4.2513     0.3291     1.4427 H            1    LIG   0.0000
  68 H           -5.1787     1.6730     1.4604 H            1    LIG   0.0000
  69 H            1.1560     3.1004     0.0070 H            1    LIG   0.0000
@<TRIPOS>BOND
   1        1        2 1
   2        2        3 1
   3        3        4 2
   4        4        5 1
   5        4        6 1
   6        6        7 1
   7        7        8 1
   8        8        9 2
   9        9       10 1
  10       10       11 2
  11       11       12 1
  12       12       13 1
  13       13       14 1
  14       14       15 2
  15       15       16 1
  16       16       17 1
  17       16       18 1
  18       18       13 2
  19       11       19 1
  20       19        8 1
  21       19       20 1
  22       20       21 1
  23       21       22 1
  24       22       23 ar
  25       23       24 ar
  26       24       25 ar
  27       25       26 ar
  28       26       27 1
  29       27       28 am
  30       28       29 2
  31       28       30 1
  32       30       31 1
  33       31       32 1
  34       31       33 1
  35       31       34 1
  36       26       35 ar
  37       35       22 ar
  38        6       36 1
  39       36        2 2
  40        1       37 1
  41        1       38 1
  42        1       39 1
  43        3       40 1
  44        5       41 1
  45        5       42 1
  46        5       43 1
  47        7       44 1
  48        7       45 1
  49       12       46 1
  50       14       47 1
  51       15       48 1
  52       17       49 1
  53       17       50 1
  54       17       51 1
  55       20       52 1
  56       20       53 1
  57       21       54 1
  58       21       55 1
  59       23       56 1
  60       24       57 1
  61       25       58 1
  62       27       59 1
  63       32       60 1
  64       32       61 1
  65       32       62 1
  66       33       63 1
  67       33       64 1
  68       33       65 1
  69       34       66 1
  70       34       67 1
  71       34       68 1
  72       35       69 1

@<TRIPOS>MOLECULE

  69   72
SMALL
USER_CHARGES
@<TRIPOS>ATOM
   1 C1           8.7115     0.6067    -6.1114 C.3          1    LIG   0.0000
   2 C2           7.8328     0.4730    -4.8784 C.2          1    LIG   0.0000
   3 C3           6.6596    -0.3011    -4.7707 C.2          1    LIG   0.0000
   4 C4           6.2167    -0.1157    -3.4976 C.2          1    LIG   0.0000
   5 C5           4.9742    -0.7385    -2.8811 C.3          1    LIG   0.0000
   6 N6           7.0830     0.7312    -2.8771 N.pl3        1    LIG   0.0000
   7 C7           6.9800     1.2003    -1.4877 C.3          1    LIG   0.0000
   8 C8           6.6190     2.6765    -1.4768 C.2          1    LIG   0.0000
   9 N9           7.4560     3.6856    -1.4799 N.2          1    LIG   0.0000
  10 N10          6.7842     4.8230    -1.4650 N.2          1    LIG   0.0000
  11 C11          5.5003     4.5622    -1.4602 C.2          1    LIG   0.0000
  12 N12          4.4650     5.4998    -1.4551 N.pl3        1    LIG   0.0000
  13 C13          3.9508     5.9684    -0.2398 C.2          1    LIG   0.0000
  14 C14          4.4208     7.0915     0.4734 C.2          1    LIG   0.0000
  15 C15          3.6390     7.1764     1.5843 C.2          1    LIG   0.0000
  16 N16          2.7556     6.1421     1.5200 N.pl3        1    LIG   0.0000
  17 C17          1.7228     5.8582     2.5269 C.3          1    LIG   0.0000
  18 N18          2.9552     5.4382     0.4296 N.2          1    LIG   0.0000
  19 N19          5.3665     3.2075    -1.4659 N.pl3        1    LIG   0.0000
  20 C20          4.1046     2.4553    -1.4576 C.3          1    LIG   0.0000
  21 C21          3.6831     2.1886    -0.0218 C.3          1    LIG   0.0000
  22 C22          2.3775     1.4103    -0.0133 C.ar         1    LIG   0.0000
  23 C23          2.4069     0.0197    -0.0206 C.ar         1    LIG   0.0000
  24 C24          1.2073    -0.6841    -0.0121 C.ar         1    LIG   0.0000
  25 C25         -0.0116    -0.0145     0.0026 C.ar         1    LIG   0.0000
  26 C26         -0.0175     1.3767     0.0098 C.ar         1    LIG   0.0000
  27 N27         -1.2385     2.0615     0.0249 N.am         1    LIG   0.0000
  28 C28         -2.1360     1.8842    -0.9949 C.2          1    LIG   0.0000
  29 O29         -3.2920     2.1617    -0.8318 O.2          1    LIG   0.0000
  30 O30         -1.7322     1.4116    -2.1480 O.3          1    LIG   0.0000
  31 C31         -2.5909     1.6699    -3.2491 C.3          1    LIG   0.0000
  32 C32         -1.9945     1.0650    -4.5095 C.3          1    LIG   0.0000
  33 C33         -3.9535     1.0501    -2.9853 C.3          1    LIG   0.0000
  34 C34         -2.7439     3.1712    -3.4310 C.3          1    LIG   0.0000
  35 C35          1.1700     2.1005     0.0019 C.ar         1    LIG   0.0000
  36 N36          8.0304     1.0612    -3.7231 N.2          1    LIG   0.0000
  37 H            8.3323     0.0529    -6.8526 H            1    LIG   0.0000
  38 H            8.7446     1.5652    -6.3947 H            1    LIG   0.0000
  39 H            9.6357     0.2901    -5.8979 H            1    LIG   0.0000
  40 H            6.2410    -0.8674    -5.4806 H            1    LIG   0.0000
  41 H            4.5218    -1.3194    -3.5577 H            1    LIG   0.0000
  42 H            5.2359    -1.2906    -2.0894 H            1    LIG   0.0000
  43 H            4.3479    -0.0151    -2.5907 H            1    LIG   0.0000
  44 H            7.8569     1.0681    -1.0255 H            1    LIG   0.0000
  45 H            6.2707     0.6801    -1.0120 H            1    LIG   0.0000
  46 H            4.0909     5.8363    -2.3192 H            1    LIG   0.0000
  47 H            5.1723     7.6991     0.2161 H            1    LIG   0.0000
  48 H            3.7012     7.8645     2.3072 H            1    LIG   0.0000
  49 H            1.7758     6.5370     3.2593 H            1    LIG   0.0000
  50 H            0.8199     5.8994     2.0990 H            1    LIG   0.0000
  51 H            1.8701     4.9452     2.9073 H            1    LIG   0.0000
  52 H            4.2317     1.5858    -1.9347 H            1    LIG   0.0000
  53 H            3.3958     2.9885    -1.9195 H            1    LIG   0.0000
  54 H            4.3920     1.6555     0.4401 H            1    LIG   0.0000
  55 H            3.5560     3.0582     0.4553 H            1    LIG   0.0000
  56 H            3.2798    -0.4681    -0.0318 H            1    LIG   0.0000
  57 H            1.2213    -1.6840    -0.0167 H            1    LIG   0.0000
  58 H           -0.8712    -0.5255     0.0078 H            1    LIG   0.0000
  59 H           -1.4555     2.6801     0.7800 H            1    LIG   0.0000
  60 H           -2.5993     1.2469    -5.2849 H            1    LIG   0.0000
  61 H           -1.0981     1.4728    -4.6831 H            1    LIG   0.0000
  62 H           -1.8939     0.0773    -4.3899 H            1    LIG   0.0000
  63 H           -4.5582     1.2320    -3.7606 H            1    LIG   0.0000
  64 H           -3.8528     0.0624    -2.8656 H            1    LIG   0.0000
  65 H           -4.3458     1.4481    -2.1560 H            1    LIG   0.0000
  66 H           -3.3486     3.3532    -4.2063 H            1    LIG   0.0000
  67 H           -3.1362     3.5692    -2.6017 H            1    LIG   0.0000
  68 H           -1.8474     3.5790    -3.6045 H            1    LIG   0.0000
  69 H            1.1560     3.1004     0.0070 H            1    LIG   0.0000
@<TRIPOS>BOND
   1        1        2 1
   2        2        3 1
   3        3        4 2
   4        4        5 1
   5        4        6 1
   6        6        7 1
   7        7        8 1
   8        8        9 2
   9        9       10 1
  10       10       11 2
  11       11       12 1
  12       12       13 1
  13       13       14 1
  14       14       15 2
  15       15       16 1
  16       16       17 1
  17       16       18 1
  18       18       13 2
  19       11       19 1
  20       19        8 1
  21       19       20 1
  22       20       21 1
  23       21       22 1
  24       22       23 ar
  25       23       24 ar
  26       24       25 ar
  27       25       26 ar
  28       26       27 1
  29       27       28 am
  30       28       29 2
  31       28       30 1
  32       30       31 1
  33       31       32 1
  34       31       33 1
  35       31       34 1
  36       26       35 ar
  37       35       22 ar
  38        6       36 1
  39       36        2 2
  40        1       37 1
  41        1       38 1
  42        1       39 1
  43        3       40 1
  44        5       41 1
  45        5       42 1
  46        5       43 1
  47        7       44 1
  48        7       45 1
  49       12       46 1
  50       14       47 1
  51       15       48 1
  52       17       49 1
  53       17       50 1
  54       17       51 1
  55       20       52 1
  56       20       53 1
  57       21       54 1
  58       21       55 1
  59       23       56 1
  60       24       57 1
  61       25       58 1
  62       27       59 1
  63       32       60 1
  64       32       61 1
  65       32       62 1
  66       33       63 1
  67       33       64 1
  68       33       65 1
  69       34       66 1
  70       34       67 1
  71       34       68 1
  72       35       69 1

@<TRIPOS>MOLECULE

  69   72
SMALL
USER_CHARGES
@<TRIPOS>ATOM
   1 C1           5.6760    -0.6898    -5.8986 C.3          1    LIG   0.0000
   2 C2           6.5187    -0.0858    -4.7871 C.2          1    LIG   0.0000
   3 C3           7.8916     0.2260    -4.8573 C.2          1    LIG   0.0000
   4 C4           8.2112     0.7396    -3.6386 C.2          1    LIG   0.0000
   5 C5           9.5833     1.2294    -3.2039 C.3          1    LIG   0.0000
   6 N6           7.0830     0.7312    -2.8771 N.pl3        1    LIG   0.0000
   7 C7           6.9800     1.2003    -1.4877 C.3          1    LIG   0.0000
   8 C8           6.6190     2.6765    -1.4768 C.2          1    LIG   0.0000
   9 N9           7.4560     3.6856    -1.4799 N.2          1    LIG   0.0000
  10 N10          6.7842     4.8230    -1.4650 N.2          1    LIG   0.0000
  11 C11          5.5003     4.5622    -1.4602 C.2          1    LIG   0.0000
  12 N12          4.4650     5.4998    -1.4551 N.pl3        1    LIG   0.0000
  13 C13          3.3193     5.2820    -2.2303 C.2          1    LIG   0.0000
  14 C14          3.2996     4.7494    -3.5368 C.2          1    LIG   0.0000
  15 C15          1.9886     4.7146    -3.9008 C.2          1    LIG   0.0000
  16 N16          1.2783     5.2112    -2.8505 N.pl3        1    LIG   0.0000
  17 C17         -0.1846     5.3536    -2.8205 C.3          1    LIG   0.0000
  18 N18          2.0854     5.5404    -1.8683 N.2          1    LIG   0.0000
  19 N19          5.3665     3.2075    -1.4659 N.pl3        1    LIG   0.0000
  20 C20          4.1046     2.4553    -1.4576 C.3          1    LIG   0.0000
  21 C21          3.6831     2.1886    -0.0218 C.3          1    LIG   0.0000
  22 C22          2.3775     1.4103    -0.0133 C.ar         1    LIG   0.0000
  23 C23          2.4069     0.0197    -0.0206 C.ar         1    LIG   0.0000
  24 C24          1.2073    -0.6841    -0.0121 C.ar         1    LIG   0.0000
  25 C25         -0.0116    -0.0145     0.0026 C.ar         1    LIG   0.0000
  26 C26         -0.0175     1.3767     0.0098 C.ar         1    LIG   0.0000
  27 N27         -1.2385     2.0615     0.0249 N.am         1    LIG   0.0000
  28 C28         -2.1162     1.8742     1.0600 C.2          1    LIG   0.0000
  29 O29         -3.1627     2.4611     1.0729 O.2          1    LIG   0.0000
  30 O30         -1.8130     1.0542     2.0356 O.3          1    LIG   0.0000
  31 C31         -2.7909     0.9324     3.0580 C.3          1    LIG   0.0000
  32 C32         -2.3016    -0.0462     4.1131 C.3          1    LIG   0.0000
  33 C33         -3.0272     2.2909     3.6976 C.3          1    LIG   0.0000
  34 C34         -4.0907     0.4221     2.4576 C.3          1    LIG   0.0000
  35 C35          1.1700     2.1005     0.0019 C.ar         1    LIG   0.0000
  36 N36          6.0969     0.2364    -3.5879 N.2          1    LIG   0.0000
  37 H            6.2460    -0.8363    -6.7070 H            1    LIG   0.0000
  38 H            5.2993    -1.5645    -5.5934 H            1    LIG   0.0000
  39 H            4.9282    -0.0662    -6.1264 H            1    LIG   0.0000
  40 H            8.5023     0.0968    -5.6386 H            1    LIG   0.0000
  41 H           10.2302     1.1219    -3.9589 H            1    LIG   0.0000
  42 H            9.5271     2.1944    -2.9480 H            1    LIG   0.0000
  43 H            9.8951     0.6939    -2.4190 H            1    LIG   0.0000
  44 H            7.8569     1.0681    -1.0255 H            1    LIG   0.0000
  45 H            6.2707     0.6801    -1.0120 H            1    LIG   0.0000
  46 H            4.5419     6.3265    -0.8978 H            1    LIG   0.0000
  47 H            4.0856     4.4580    -4.0820 H            1    LIG   0.0000
  48 H            1.6188     4.3879    -4.7706 H            1    LIG   0.0000
  49 H           -0.5684     5.0341    -3.6869 H            1    LIG   0.0000
  50 H           -0.5572     4.8084    -2.0696 H            1    LIG   0.0000
  51 H           -0.4232     6.3152    -2.6847 H            1    LIG   0.0000
  52 H            4.2317     1.5858    -1.9347 H            1    LIG   0.0000
  53 H            3.3958     2.9885    -1.9195 H            1    LIG   0.0000
  54 H            4.3920     1.6555     0.4401 H            1    LIG   0.0000
  55 H            3.5560     3.0582     0.4553 H            1    LIG   0.0000
  56 H            3.2798    -0.4681    -0.0318 H            1    LIG   0.0000
  57 H            1.2213    -1.6840    -0.0167 H            1    LIG   0.0000
  58 H           -0.8712    -0.5255     0.0078 H            1    LIG   0.0000
  59 H           -1.4699     2.6874    -0.7199 H            1    LIG   0.0000
  60 H           -2.9902    -0.1320     4.8331 H            1    LIG   0.0000
  61 H           -2.1461    -0.9399     3.6924 H            1    LIG   0.0000
  62 H           -1.4464     0.2895     4.5081 H            1    LIG   0.0000
  63 H           -3.7159     2.2051     4.4176 H            1    LIG   0.0000
  64 H           -2.1721     2.6266     4.0926 H            1    LIG   0.0000
  65 H           -3.3491     2.9347     3.0034 H            1    LIG   0.0000
  66 H           -4.7794     0.3362     3.1776 H            1    LIG   0.0000
  67 H           -4.4126     1.0659     1.7634 H            1    LIG   0.0000
  68 H           -3.9352    -0.4717     2.0368 H            1    LIG   0.0000
  69 H            1.1560     3.1004     0.0070 H            1    LIG   0.0000
@<TRIPOS>BOND
   1        1        2 1
   2        2        3 1
   3        3        4 2
   4        4        5 1
   5        4        6 1
   6        6        7 1
   7        7        8 1
   8        8        9 2
   9        9       10 1
  10       10       11 2
  11       11       12 1
  12       12       13 1
  13       13       14 1
  14       14       15 2
  15       15       16 1
  16       16       17 1
  17       16       18 1
  18       18       13 2
  19       11       19 1
  20       19        8 1
  21       19       20 1
  22       20       21 1
  23       21       22 1
  24       22       23 ar
  25       23       24 ar
  26       24       25 ar
  27       25       26 ar
  28       26       27 1
  29       27       28 am
  30       28       29 2
  31       28       30 1
  32       30       31 1
  33       31       32 1
  34       31       33 1
  35       31       34 1
  36       26       35 ar
  37       35       22 ar
  38        6       36 1
  39       36        2 2
  40        1       37 1
  41        1       38 1
  42        1       39 1
  43        3       40 1
  44        5       41 1
  45        5       42 1
  46        5       43 1
  47        7       44 1
  48        7       45 1
  49       12       46 1
  50       14       47 1
  51       15       48 1
  52       17       49 1
  53       17       50 1
  54       17       51 1
  55       20       52 1
  56       20       53 1
  57       21       54 1
  58       21       55 1
  59       23       56 1
  60       24       57 1
  61       25       58 1
  62       27       59 1
  63       32       60 1
  64       32       61 1
  65       32       62 1
  66       33       63 1
  67       33       64 1
  68       33       65 1
  69       34       66 1
  70       34       67 1
  71       34       68 1
  72       35       69 1

@<TRIPOS>MOLECULE

  69   72
SMALL
USER_CHARGES
@<TRIPOS>ATOM
   1 C1           5.6760    -0.6898    -5.8986 C.3          1    LIG   0.0000
   2 C2           6.5187    -0.0858    -4.7871 C.2          1    LIG   0.0000
   3 C3           7.8916     0.2260    -4.8573 C.2          1    LIG   0.0000
   4 C4           8.2112     0.7396    -3.6386 C.2          1    LIG   0.0000
   5 C5           9.5833     1.2294    -3.2039 C.3          1    LIG   0.0000
   6 N6           7.0830     0.7312    -2.8771 N.pl3        1    LIG   0.0000
   7 C7           6.9800     1.2003    -1.4877 C.3          1    LIG   0.0000
   8 C8           6.6190     2.6765    -1.4768 C.2          1    LIG   0.0000
   9 N9           7.4560     3.6856    -1.4799 N.2          1    LIG   0.0000
  10 N10          6.7842     4.8230    -1.4650 N.2          1    LIG   0.0000
  11 C11          5.5003     4.5622    -1.4602 C.2          1    LIG   0.0000
  12 N12          4.4650     5.4998    -1.4551 N.pl3        1    LIG   0.0000
  13 C13          3.9508     5.9684    -0.2398 C.2          1    LIG   0.0000
  14 C14          4.3850     5.5738     1.0435 C.2          1    LIG   0.0000
  15 C15          3.6170     6.2727     1.9234 C.2          1    LIG   0.0000
  16 N16          2.7694     7.0370     1.1807 N.pl3        1    LIG   0.0000
  17 C17          1.7608     7.9512     1.7359 C.3          1    LIG   0.0000
  18 N18          2.9843     6.8440    -0.1003 N.2          1    LIG   0.0000
  19 N19          5.3665     3.2075    -1.4659 N.pl3        1    LIG   0.0000
  20 C20          4.1046     2.4553    -1.4576 C.3          1    LIG   0.0000
  21 C21          3.6831     2.1886    -0.0218 C.3          1    LIG   0.0000
  22 C22          2.3775     1.4103    -0.0133 C.ar         1    LIG   0.0000
  23 C23          2.4069     0.0197    -0.0206 C.ar         1    LIG   0.0000
  24 C24          1.2073    -0.6841    -0.0121 C.ar         1    LIG   0.0000
  25 C25         -0.0116    -0.0145     0.0026 C.ar         1    LIG   0.0000
  26 C26         -0.0175     1.3767     0.0098 C.ar         1    LIG   0.0000
  27 N27         -1.2385     2.0615     0.0249 N.am         1    LIG   0.0000
  28 C28         -2.2731     1.6001     0.7953 C.2          1    LIG   0.0000
  29 O29         -3.3197     2.1871     0.8082 O.2          1    LIG   0.0000
  30 O30         -2.1200     0.5182     1.5178 O.3          1    LIG   0.0000
  31 C31         -3.2527     0.1261     2.2791 C.3          1    LIG   0.0000
  32 C32         -2.9261    -1.1364     3.0600 C.3          1    LIG   0.0000
  33 C33         -3.6230     1.2386     3.2464 C.3          1    LIG   0.0000
  34 C34         -4.4218    -0.1437     1.3458 C.3          1    LIG   0.0000
  35 C35          1.1700     2.1005     0.0019 C.ar         1    LIG   0.0000
  36 N36          6.0969     0.2364    -3.5879 N.2          1    LIG   0.0000
  37 H            6.2460    -0.8363    -6.7070 H            1    LIG   0.0000
  38 H            5.2993    -1.5645    -5.5934 H            1    LIG   0.0000
  39 H            4.9282    -0.0662    -6.1264 H            1    LIG   0.0000
  40 H            8.5023     0.0968    -5.6386 H            1    LIG   0.0000
  41 H           10.2302     1.1219    -3.9589 H            1    LIG   0.0000
  42 H            9.5271     2.1944    -2.9480 H            1    LIG   0.0000
  43 H            9.8951     0.6939    -2.4190 H            1    LIG   0.0000
  44 H            7.8569     1.0681    -1.0255 H            1    LIG   0.0000
  45 H            6.2707     0.6801    -1.0120 H            1    LIG   0.0000
  46 H            4.0909     5.8363    -2.3192 H            1    LIG   0.0000
  47 H            5.1070     4.9171     1.2612 H            1    LIG   0.0000
  48 H            3.6657     6.2326     2.9215 H            1    LIG   0.0000
  49 H            1.7952     7.9185     2.7347 H            1    LIG   0.0000
  50 H            1.9493     8.8832     1.4262 H            1    LIG   0.0000
  51 H            0.8520     7.6738     1.4243 H            1    LIG   0.0000
  52 H            4.2317     1.5858    -1.9347 H            1    LIG   0.0000
  53 H            3.3958     2.9885    -1.9195 H            1    LIG   0.0000
  54 H            4.3920     1.6555     0.4401 H            1    LIG   0.0000
  55 H            3.5560     3.0582     0.4553 H            1    LIG   0.0000
  56 H            3.2798    -0.4681    -0.0318 H            1    LIG   0.0000
  57 H            1.2213    -1.6840    -0.0167 H            1    LIG   0.0000
  58 H           -0.8712    -0.5255     0.0078 H            1    LIG   0.0000
  59 H           -1.3554     2.8874    -0.5267 H            1    LIG   0.0000
  60 H           -3.7238    -1.4125     3.5961 H            1    LIG   0.0000
  61 H           -2.6825    -1.8683     2.4236 H            1    LIG   0.0000
  62 H           -2.1570    -0.9589     3.6740 H            1    LIG   0.0000
  63 H           -4.4207     0.9625     3.7825 H            1    LIG   0.0000
  64 H           -2.8539     1.4161     3.8604 H            1    LIG   0.0000
  65 H           -3.8379     2.0692     2.7326 H            1    LIG   0.0000
  66 H           -5.2195    -0.4198     1.8819 H            1    LIG   0.0000
  67 H           -4.6367     0.6869     0.8320 H            1    LIG   0.0000
  68 H           -4.1782    -0.8756     0.7094 H            1    LIG   0.0000
  69 H            1.1560     3.1004     0.0070 H            1    LIG   0.0000
@<TRIPOS>BOND
   1        1        2 1
   2        2        3 1
   3        3        4 2
   4        4        5 1
   5        4        6 1
   6        6        7 1
   7        7        8 1
   8        8        9 2
   9        9       10 1
  10       10       11 2
  11       11       12 1
  12       12       13 1
  13       13       14 1
  14       14       15 2
  15       15       16 1
  16       16       17 1
  17       16       18 1
  18       18       13 2
  19       11       19 1
  20       19        8 1
  21       19       20 1
  22       20       21 1
  23       21       22 1
  24       22       23 ar
  25       23       24 ar
  26       24       25 ar
  27       25       26 ar
  28       26       27 1
  29       27       28 am
  30       28       29 2
  31       28       30 1
  32       30       31 1
  33       31       32 1
  34       31       33 1
  35       31       34 1
  36       26       35 ar
  37       35       22 ar
  38        6       36 1
  39       36        2 2
  40        1       37 1
  41        1       38 1
  42        1       39 1
  43        3       40 1
  44        5       41 1
  45        5       42 1
  46        5       43 1
  47        7       44 1
  48        7       45 1
  49       12       46 1
  50       14       47 1
  51       15       48 1
  52       17       49 1
  53       17       50 1
  54       17       51 1
  55       20       52 1
  56       20       53 1
  57       21       54 1
  58       21       55 1
  59       23       56 1
  60       24       57 1
  61       25       58 1
  62       27       59 1
  63       32       60 1
  64       32       61 1
  65       32       62 1
  66       33       63 1
  67       33       64 1
  68       33       65 1
  69       34       66 1
  70       34       67 1
  71       34       68 1
  72       35       69 1

@<TRIPOS>MOLECULE

  69   72
SMALL
USER_CHARGES
@<TRIPOS>ATOM
   1 C1           5.6760    -0.6898    -5.8986 C.3          1    LIG   0.0000
   2 C2           6.5187    -0.0858    -4.7871 C.2          1    LIG   0.0000
   3 C3           7.8916     0.2260    -4.8573 C.2          1    LIG   0.0000
   4 C4           8.2112     0.7396    -3.6386 C.2          1    LIG   0.0000
   5 C5           9.5833     1.2294    -3.2039 C.3          1    LIG   0.0000
   6 N6           7.0830     0.7312    -2.8771 N.pl3        1    LIG   0.0000
   7 C7           6.9800     1.2003    -1.4877 C.3          1    LIG   0.0000
   8 C8           6.6190     2.6765    -1.4768 C.2          1    LIG   0.0000
   9 N9           7.4560     3.6856    -1.4799 N.2          1    LIG   0.0000
  10 N10          6.7842     4.8230    -1.4650 N.2          1    LIG   0.0000
  11 C11          5.5003     4.5622    -1.4602 C.2          1    LIG   0.0000
  12 N12          4.4650     5.4998    -1.4551 N.pl3        1    LIG   0.0000
  13 C13          3.9508     5.9684    -0.2398 C.2          1    LIG   0.0000
  14 C14          2.9129     6.9134    -0.0959 C.2          1    LIG   0.0000
  15 C15          2.7412     7.0709     1.2451 C.2          1    LIG   0.0000
  16 N16          3.6458     6.2547     1.8532 N.pl3        1    LIG   0.0000
  17 C17          3.8039     6.1156     3.3081 C.3          1    LIG   0.0000
  18 N18          4.3527     5.6075     0.9555 N.2          1    LIG   0.0000
  19 N19          5.3665     3.2075    -1.4659 N.pl3        1    LIG   0.0000
  20 C20          4.1046     2.4553    -1.4576 C.3          1    LIG   0.0000
  21 C21          3.6831     2.1886    -0.0218 C.3          1    LIG   0.0000
  22 C22          2.3775     1.4103    -0.0133 C.ar         1    LIG   0.0000
  23 C23          2.4069     0.0197    -0.0206 C.ar         1    LIG   0.0000
  24 C24          1.2073    -0.6841    -0.0121 C.ar         1    LIG   0.0000
  25 C25         -0.0116    -0.0145     0.0026 C.ar         1    LIG   0.0000
  26 C26         -0.0175     1.3767     0.0098 C.ar         1    LIG   0.0000
  27 N27         -1.2385     2.0615     0.0249 N.am         1    LIG   0.0000
  28 C28         -2.1360     1.8842    -0.9949 C.2          1    LIG   0.0000
  29 O29         -1.8756     1.1419    -1.9011 O.2          1    LIG   0.0000
  30 O30         -3.2785     2.5250    -0.9808 O.3          1    LIG   0.0000
  31 C31         -3.9327     2.6360    -2.2362 C.3          1    LIG   0.0000
  32 C32         -5.2359     3.3988    -2.0627 C.3          1    LIG   0.0000
  33 C33         -3.0354     3.3811    -3.2109 C.3          1    LIG   0.0000
  34 C34         -4.2270     1.2470    -2.7788 C.3          1    LIG   0.0000
  35 C35          1.1700     2.1005     0.0019 C.ar         1    LIG   0.0000
  36 N36          6.0969     0.2364    -3.5879 N.2          1    LIG   0.0000
  37 H            6.2460    -0.8363    -6.7070 H            1    LIG   0.0000
  38 H            5.2993    -1.5645    -5.5934 H            1    LIG   0.0000
  39 H            4.9282    -0.0662    -6.1264 H            1    LIG   0.0000
  40 H            8.5023     0.0968    -5.6386 H            1    LIG   0.0000
  41 H           10.2302     1.1219    -3.9589 H            1    LIG   0.0000
  42 H            9.5271     2.1944    -2.9480 H            1    LIG   0.0000
  43 H            9.8951     0.6939    -2.4190 H            1    LIG   0.0000
  44 H            7.8569     1.0681    -1.0255 H            1    LIG   0.0000
  45 H            6.2707     0.6801    -1.0120 H            1    LIG   0.0000
  46 H            4.0909     5.8363    -2.3192 H            1    LIG   0.0000
  47 H            2.4082     7.3720    -0.8273 H            1    LIG   0.0000
  48 H            2.0795     7.6698     1.6961 H            1    LIG   0.0000
  49 H            3.1503     6.7128     3.7730 H            1    LIG   0.0000
  50 H            3.6346     5.1662     3.5726 H            1    LIG   0.0000
  51 H            4.7344     6.3733     3.5684 H            1    LIG   0.0000
  52 H            4.2317     1.5858    -1.9347 H            1    LIG   0.0000
  53 H            3.3958     2.9885    -1.9195 H            1    LIG   0.0000
  54 H            4.3920     1.6555     0.4401 H            1    LIG   0.0000
  55 H            3.5560     3.0582     0.4553 H            1    LIG   0.0000
  56 H            3.2798    -0.4681    -0.0318 H            1    LIG   0.0000
  57 H            1.2213    -1.6840    -0.0167 H            1    LIG   0.0000
  58 H           -0.8712    -0.5255     0.0078 H            1    LIG   0.0000
  59 H           -1.4555     2.6801     0.7800 H            1    LIG   0.0000
  60 H           -5.6966     3.4771    -2.9468 H            1    LIG   0.0000
  61 H           -5.8262     2.9086    -1.4214 H            1    LIG   0.0000
  62 H           -5.0423     4.3127    -1.7057 H            1    LIG   0.0000
  63 H           -3.4960     3.4593    -4.0950 H            1    LIG   0.0000
  64 H           -2.8417     4.2949    -2.8540 H            1    LIG   0.0000
  65 H           -2.1780     2.8793    -3.3251 H            1    LIG   0.0000
  66 H           -4.6877     1.3252    -3.6629 H            1    LIG   0.0000
  67 H           -3.3696     0.7452    -2.8929 H            1    LIG   0.0000
  68 H           -4.8173     0.7568    -2.1375 H            1    LIG   0.0000
  69 H            1.1560     3.1004     0.0070 H            1    LIG   0.0000
@<TRIPOS>BOND
   1        1        2 1
   2        2        3 1
   3        3        4 2
   4        4        5 1
   5        4        6 1
   6        6        7 1
   7        7        8 1
   8        8        9 2
   9        9       10 1
  10       10       11 2
  11       11       12 1
  12       12       13 1
  13       13       14 1
  14       14       15 2
  15       15       16 1
  16       16       17 1
  17       16       18 1
  18       18       13 2
  19       11       19 1
  20       19        8 1
  21       19       20 1
  22       20       21 1
  23       21       22 1
  24       22       23 ar
  25       23       24 ar
  26       24       25 ar
  27       25       26 ar
  28       26       27 1
  29       27       28 am
  30       28       29 2
  31       28       30 1
  32       30       31 1
  33       31       32 1
  34       31       33 1
  35       31       34 1
  36       26       35 ar
  37       35       22 ar
  38        6       36 1
  39       36        2 2
  40        1       37 1
  41        1       38 1
  42        1       39 1
  43        3       40 1
  44        5       41 1
  45        5       42 1
  46        5       43 1
  47        7       44 1
  48        7       45 1
  49       12       46 1
  50       14       47 1
  51       15       48 1
  52       17       49 1
  53       17       50 1
  54       17       51 1
  55       20       52 1
  56       20       53 1
  57       21       54 1
  58       21       55 1
  59       23       56 1
  60       24       57 1
  61       25       58 1
  62       27       59 1
  63       32       60 1
  64       32       61 1
  65       32       62 1
  66       33       63 1
  67       33       64 1
  68       33       65 1
  69       34       66 1
  70       34       67 1
  71       34       68 1
  72       35       69 1

@<TRIPOS>MOLECULE

  69   72
SMALL
USER_CHARGES
@<TRIPOS>ATOM
   1 C1           5.6447    -0.1387    -6.0869 C.3          1    LIG   0.0000
   2 C2           6.5056     0.1527    -4.8686 C.2          1    LIG   0.0000
   3 C3           7.9044     0.0023    -4.7809 C.2          1    LIG   0.0000
   4 C4           8.2323     0.3773    -3.5147 C.2          1    LIG   0.0000
   5 C5           9.6306     0.3926    -2.9180 C.3          1    LIG   0.0000
   6 N6           7.0830     0.7312    -2.8771 N.pl3        1    LIG   0.0000
   7 C7           6.9800     1.2003    -1.4877 C.3          1    LIG   0.0000
   8 C8           6.6190     2.6765    -1.4768 C.2          1    LIG   0.0000
   9 N9           7.4560     3.6856    -1.4799 N.2          1    LIG   0.0000
  10 N10          6.7842     4.8230    -1.4650 N.2          1    LIG   0.0000
  11 C11          5.5003     4.5622    -1.4602 C.2          1    LIG   0.0000
  12 N12          4.4650     5.4998    -1.4551 N.pl3        1    LIG   0.0000
  13 C13          3.3193     5.2820    -2.2303 C.2          1    LIG   0.0000
  14 C14          3.2996     4.7494    -3.5368 C.2          1    LIG   0.0000
  15 C15          1.9886     4.7146    -3.9008 C.2          1    LIG   0.0000
  16 N16          1.2783     5.2112    -2.8505 N.pl3        1    LIG   0.0000
  17 C17         -0.1846     5.3536    -2.8205 C.3          1    LIG   0.0000
  18 N18          2.0854     5.5404    -1.8683 N.2          1    LIG   0.0000
  19 N19          5.3665     3.2075    -1.4659 N.pl3        1    LIG   0.0000
  20 C20          4.1046     2.4553    -1.4576 C.3          1    LIG   0.0000
  21 C21          3.6831     2.1886    -0.0218 C.3          1    LIG   0.0000
  22 C22          2.3775     1.4103    -0.0133 C.ar         1    LIG   0.0000
  23 C23          2.4069     0.0197    -0.0206 C.ar         1    LIG   0.0000
  24 C24          1.2073    -0.6841    -0.0121 C.ar         1    LIG   0.0000
  25 C25         -0.0116    -0.0145     0.0026 C.ar         1    LIG   0.0000
  26 C26         -0.0175     1.3767     0.0098 C.ar         1    LIG   0.0000
  27 N27         -1.2385     2.0615     0.0249 N.am         1    LIG   0.0000
  28 C28         -2.2878     1.6076    -0.7299 C.2          1    LIG   0.0000
  29 O29         -3.3344     2.1946    -0.7170 O.2          1    LIG   0.0000
  30 O30         -2.1487     0.5327    -1.4657 O.3          1    LIG   0.0000
  31 C31         -3.0883     0.3883    -2.5207 C.3          1    LIG   0.0000
  32 C32         -2.8027    -0.8964    -3.2811 C.3          1    LIG   0.0000
  33 C33         -4.4935     0.3338    -1.9437 C.3          1    LIG   0.0000
  34 C34         -2.9744     1.5728    -3.4663 C.3          1    LIG   0.0000
  35 C35          1.1700     2.1005     0.0019 C.ar         1    LIG   0.0000
  36 N36          6.0772     0.5874    -3.7078 N.2          1    LIG   0.0000
  37 H            6.2249    -0.4576    -6.8364 H            1    LIG   0.0000
  38 H            4.9746    -0.8455    -5.8602 H            1    LIG   0.0000
  39 H            5.1684     0.6952    -6.3657 H            1    LIG   0.0000
  40 H            8.5252    -0.3136    -5.4984 H            1    LIG   0.0000
  41 H           10.2894     0.0854    -3.6046 H            1    LIG   0.0000
  42 H            9.8594     1.3222    -2.6289 H            1    LIG   0.0000
  43 H            9.6626    -0.2195    -2.1279 H            1    LIG   0.0000
  44 H            7.8569     1.0681    -1.0255 H            1    LIG   0.0000
  45 H            6.2707     0.6801    -1.0120 H            1    LIG   0.0000
  46 H            4.5419     6.3265    -0.8978 H            1    LIG   0.0000
  47 H            4.0856     4.4580    -4.0820 H            1    LIG   0.0000
  48 H            1.6188     4.3879    -4.7706 H            1    LIG   0.0000
  49 H           -0.5684     5.0341    -3.6869 H            1    LIG   0.0000
  50 H           -0.5572     4.8084    -2.0696 H            1    LIG   0.0000
  51 H           -0.4232     6.3152    -2.6847 H            1    LIG   0.0000
  52 H            4.2317     1.5858    -1.9347 H            1    LIG   0.0000
  53 H            3.3958     2.9885    -1.9195 H            1    LIG   0.0000
  54 H            4.3920     1.6555     0.4401 H            1    LIG   0.0000
  55 H            3.5560     3.0582     0.4553 H            1    LIG   0.0000
  56 H            3.2798    -0.4681    -0.0318 H            1    LIG   0.0000
  57 H            1.2213    -1.6840    -0.0167 H            1    LIG   0.0000
  58 H           -0.8712    -0.5255     0.0078 H            1    LIG   0.0000
  59 H           -1.3447     2.8820     0.5866 H            1    LIG   0.0000
  60 H           -3.4643    -0.9982    -4.0240 H            1    LIG   0.0000
  61 H           -1.8782    -0.8606    -3.6607 H            1    LIG   0.0000
  62 H           -2.8776    -1.6757    -2.6590 H            1    LIG   0.0000
  63 H           -5.1551     0.2321    -2.6866 H            1    LIG   0.0000
  64 H           -4.5684    -0.4455    -1.3216 H            1    LIG   0.0000
  65 H           -4.6814     1.1791    -1.4434 H            1    LIG   0.0000
  66 H           -3.6360     1.4711    -4.2092 H            1    LIG   0.0000
  67 H           -3.1623     2.4180    -2.9660 H            1    LIG   0.0000
  68 H           -2.0499     1.6086    -3.8459 H            1    LIG   0.0000
  69 H            1.1560     3.1004     0.0070 H            1    LIG   0.0000
@<TRIPOS>BOND
   1        1        2 1
   2        2        3 1
   3        3        4 2
   4        4        5 1
   5        4        6 1
   6        6        7 1
   7        7        8 1
   8        8        9 2
   9        9       10 1
  10       10       11 2
  11       11       12 1
  12       12       13 1
  13       13       14 1
  14       14       15 2
  15       15       16 1
  16       16       17 1
  17       16       18 1
  18       18       13 2
  19       11       19 1
  20       19        8 1
  21       19       20 1
  22       20       21 1
  23       21       22 1
  24       22       23 ar
  25       23       24 ar
  26       24       25 ar
  27       25       26 ar
  28       26       27 1
  29       27       28 am
  30       28       29 2
  31       28       30 1
  32       30       31 1
  33       31       32 1
  34       31       33 1
  35       31       34 1
  36       26       35 ar
  37       35       22 ar
  38        6       36 1
  39       36        2 2
  40        1       37 1
  41        1       38 1
  42        1       39 1
  43        3       40 1
  44        5       41 1
  45        5       42 1
  46        5       43 1
  47        7       44 1
  48        7       45 1
  49       12       46 1
  50       14       47 1
  51       15       48 1
  52       17       49 1
  53       17       50 1
  54       17       51 1
  55       20       52 1
  56       20       53 1
  57       21       54 1
  58       21       55 1
  59       23       56 1
  60       24       57 1
  61       25       58 1
  62       27       59 1
  63       32       60 1
  64       32       61 1
  65       32       62 1
  66       33       63 1
  67       33       64 1
  68       33       65 1
  69       34       66 1
  70       34       67 1
  71       34       68 1
  72       35       69 1

@<TRIPOS>MOLECULE

  69   72
SMALL
USER_CHARGES
@<TRIPOS>ATOM
   1 C1          11.3332     0.6734    -3.8331 C.3          1    LIG   0.0000
   2 C2           9.8356     0.7118    -3.5757 C.2          1    LIG   0.0000
   3 C3           8.8206     0.4518    -4.5186 C.2          1    LIG   0.0000
   4 C4           7.6490     0.6036    -3.8437 C.2          1    LIG   0.0000
   5 C5           6.2530     0.4323    -4.4211 C.3          1    LIG   0.0000
   6 N6           7.9514     0.9412    -2.5602 N.pl3        1    LIG   0.0000
   7 C7           6.9800     1.2003    -1.4877 C.3          1    LIG   0.0000
   8 C8           6.6190     2.6765    -1.4768 C.2          1    LIG   0.0000
   9 N9           7.4560     3.6856    -1.4799 N.2          1    LIG   0.0000
  10 N10          6.7842     4.8230    -1.4650 N.2          1    LIG   0.0000
  11 C11          5.5003     4.5622    -1.4602 C.2          1    LIG   0.0000
  12 N12          4.4650     5.4998    -1.4551 N.pl3        1    LIG   0.0000
  13 C13          3.3193     5.2820    -2.2303 C.2          1    LIG   0.0000
  14 C14          3.2996     4.7494    -3.5368 C.2          1    LIG   0.0000
  15 C15          1.9886     4.7146    -3.9008 C.2          1    LIG   0.0000
  16 N16          1.2783     5.2112    -2.8505 N.pl3        1    LIG   0.0000
  17 C17         -0.1846     5.3536    -2.8205 C.3          1    LIG   0.0000
  18 N18          2.0854     5.5404    -1.8683 N.2          1    LIG   0.0000
  19 N19          5.3665     3.2075    -1.4659 N.pl3        1    LIG   0.0000
  20 C20          4.1046     2.4553    -1.4576 C.3          1    LIG   0.0000
  21 C21          3.6831     2.1886    -0.0218 C.3          1    LIG   0.0000
  22 C22          2.3775     1.4103    -0.0133 C.ar         1    LIG   0.0000
  23 C23          2.4069     0.0197    -0.0206 C.ar         1    LIG   0.0000
  24 C24          1.2073    -0.6841    -0.0121 C.ar         1    LIG   0.0000
  25 C25         -0.0116    -0.0145     0.0026 C.ar         1    LIG   0.0000
  26 C26         -0.0175     1.3767     0.0098 C.ar         1    LIG   0.0000
  27 N27         -1.2385     2.0615     0.0249 N.am         1    LIG   0.0000
  28 C28         -2.4163     1.3618     0.0328 C.2          1    LIG   0.0000
  29 O29         -3.3967     1.8316    -0.4751 O.2          1    LIG   0.0000
  30 O30         -2.4722     0.1798     0.5949 O.3          1    LIG   0.0000
  31 C31         -3.7390    -0.4600     0.5483 C.3          1    LIG   0.0000
  32 C32         -3.6489    -1.8129     1.2353 C.3          1    LIG   0.0000
  33 C33         -4.7686     0.4022     1.2602 C.3          1    LIG   0.0000
  34 C34         -4.1555    -0.6543    -0.9006 C.3          1    LIG   0.0000
  35 C35          1.1700     2.1005     0.0019 C.ar         1    LIG   0.0000
  36 N36          9.2565     0.9964    -2.4340 N.2          1    LIG   0.0000
  37 H           11.5010     0.4293    -4.7883 H            1    LIG   0.0000
  38 H           11.7270     1.5730    -3.6448 H            1    LIG   0.0000
  39 H           11.7567    -0.0076    -3.2357 H            1    LIG   0.0000
  40 H            8.9372     0.2072    -5.4812 H            1    LIG   0.0000
  41 H            6.3202     0.1827    -5.3872 H            1    LIG   0.0000
  42 H            5.7725    -0.2895    -3.9230 H            1    LIG   0.0000
  43 H            5.7482     1.2910    -4.3331 H            1    LIG   0.0000
  44 H            7.3810     0.9486    -0.6069 H            1    LIG   0.0000
  45 H            6.1557     0.6567    -1.6462 H            1    LIG   0.0000
  46 H            4.5419     6.3265    -0.8978 H            1    LIG   0.0000
  47 H            4.0856     4.4580    -4.0820 H            1    LIG   0.0000
  48 H            1.6188     4.3879    -4.7706 H            1    LIG   0.0000
  49 H           -0.5684     5.0341    -3.6869 H            1    LIG   0.0000
  50 H           -0.5572     4.8084    -2.0696 H            1    LIG   0.0000
  51 H           -0.4232     6.3152    -2.6847 H            1    LIG   0.0000
  52 H            4.2317     1.5858    -1.9347 H            1    LIG   0.0000
  53 H            3.3958     2.9885    -1.9195 H            1    LIG   0.0000
  54 H            4.3920     1.6555     0.4401 H            1    LIG   0.0000
  55 H            3.5560     3.0582     0.4553 H            1    LIG   0.0000
  56 H            3.2798    -0.4681    -0.0318 H            1    LIG   0.0000
  57 H            1.2213    -1.6840    -0.0167 H            1    LIG   0.0000
  58 H           -0.8712    -0.5255     0.0078 H            1    LIG   0.0000
  59 H           -1.2509     3.0614     0.0299 H            1    LIG   0.0000
  60 H           -4.5411    -2.2635     1.2025 H            1    LIG   0.0000
  61 H           -2.9716    -2.3802     0.7669 H            1    LIG   0.0000
  62 H           -3.3749    -1.6851     2.1885 H            1    LIG   0.0000
  63 H           -5.6607    -0.0484     1.2274 H            1    LIG   0.0000
  64 H           -4.4946     0.5300     2.2134 H            1    LIG   0.0000
  65 H           -4.8279     1.2923     0.8082 H            1    LIG   0.0000
  66 H           -5.0476    -1.1049    -0.9334 H            1    LIG   0.0000
  67 H           -4.2147     0.2358    -1.3526 H            1    LIG   0.0000
  68 H           -3.4781    -1.2216    -1.3690 H            1    LIG   0.0000
  69 H            1.1560     3.1004     0.0070 H            1    LIG   0.0000
@<TRIPOS>BOND
   1        1        2 1
   2        2        3 1
   3        3        4 2
   4        4        5 1
   5        4        6 1
   6        6        7 1
   7        7        8 1
   8        8        9 2
   9        9       10 1
  10       10       11 2
  11       11       12 1
  12       12       13 1
  13       13       14 1
  14       14       15 2
  15       15       16 1
  16       16       17 1
  17       16       18 1
  18       18       13 2
  19       11       19 1
  20       19        8 1
  21       19       20 1
  22       20       21 1
  23       21       22 1
  24       22       23 ar
  25       23       24 ar
  26       24       25 ar
  27       25       26 ar
  28       26       27 1
  29       27       28 am
  30       28       29 2
  31       28       30 1
  32       30       31 1
  33       31       32 1
  34       31       33 1
  35       31       34 1
  36       26       35 ar
  37       35       22 ar
  38        6       36 1
  39       36        2 2
  40        1       37 1
  41        1       38 1
  42        1       39 1
  43        3       40 1
  44        5       41 1
  45        5       42 1
  46        5       43 1
  47        7       44 1
  48        7       45 1
  49       12       46 1
  50       14       47 1
  51       15       48 1
  52       17       49 1
  53       17       50 1
  54       17       51 1
  55       20       52 1
  56       20       53 1
  57       21       54 1
  58       21       55 1
  59       23       56 1
  60       24       57 1
  61       25       58 1
  62       27       59 1
  63       32       60 1
  64       32       61 1
  65       32       62 1
  66       33       63 1
  67       33       64 1
  68       33       65 1
  69       34       66 1
  70       34       67 1
  71       34       68 1
  72       35       69 1

@<TRIPOS>MOLECULE

  69   72
SMALL
USER_CHARGES
@<TRIPOS>ATOM
   1 C1          11.3332     0.6734    -3.8331 C.3          1    LIG   0.0000
   2 C2           9.8356     0.7118    -3.5757 C.2          1    LIG   0.0000
   3 C3           8.8206     0.4518    -4.5186 C.2          1    LIG   0.0000
   4 C4           7.6490     0.6036    -3.8437 C.2          1    LIG   0.0000
   5 C5           6.2530     0.4323    -4.4211 C.3          1    LIG   0.0000
   6 N6           7.9514     0.9412    -2.5602 N.pl3        1    LIG   0.0000
   7 C7           6.9800     1.2003    -1.4877 C.3          1    LIG   0.0000
   8 C8           6.6190     2.6765    -1.4768 C.2          1    LIG   0.0000
   9 N9           7.4560     3.6856    -1.4799 N.2          1    LIG   0.0000
  10 N10          6.7842     4.8230    -1.4650 N.2          1    LIG   0.0000
  11 C11          5.5003     4.5622    -1.4602 C.2          1    LIG   0.0000
  12 N12          4.4650     5.4998    -1.4551 N.pl3        1    LIG   0.0000
  13 C13          3.9508     5.9684    -0.2398 C.2          1    LIG   0.0000
  14 C14          4.3850     5.5738     1.0435 C.2          1    LIG   0.0000
  15 C15          3.6170     6.2727     1.9234 C.2          1    LIG   0.0000
  16 N16          2.7694     7.0370     1.1807 N.pl3        1    LIG   0.0000
  17 C17          1.7608     7.9512     1.7359 C.3          1    LIG   0.0000
  18 N18          2.9843     6.8440    -0.1003 N.2          1    LIG   0.0000
  19 N19          5.3665     3.2075    -1.4659 N.pl3        1    LIG   0.0000
  20 C20          4.1046     2.4553    -1.4576 C.3          1    LIG   0.0000
  21 C21          3.6831     2.1886    -0.0218 C.3          1    LIG   0.0000
  22 C22          2.3775     1.4103    -0.0133 C.ar         1    LIG   0.0000
  23 C23          2.4069     0.0197    -0.0206 C.ar         1    LIG   0.0000
  24 C24          1.2073    -0.6841    -0.0121 C.ar         1    LIG   0.0000
  25 C25         -0.0116    -0.0145     0.0026 C.ar         1    LIG   0.0000
  26 C26         -0.0175     1.3767     0.0098 C.ar         1    LIG   0.0000
  27 N27         -1.2385     2.0615     0.0249 N.am         1    LIG   0.0000
  28 C28         -2.1162     1.8742     1.0600 C.2          1    LIG   0.0000
  29 O29         -1.8384     1.1231     1.9537 O.2          1    LIG   0.0000
  30 O30         -3.2587     2.5149     1.0741 O.3          1    LIG   0.0000
  31 C31         -3.8885     2.6137     2.3429 C.3          1    LIG   0.0000
  32 C32         -5.1948     3.3781     2.2020 C.3          1    LIG   0.0000
  33 C33         -4.1725     1.2195     2.8776 C.3          1    LIG   0.0000
  34 C34         -2.9726     3.3494     3.3074 C.3          1    LIG   0.0000
  35 C35          1.1700     2.1005     0.0019 C.ar         1    LIG   0.0000
  36 N36          9.2565     0.9964    -2.4340 N.2          1    LIG   0.0000
  37 H           11.5010     0.4293    -4.7883 H            1    LIG   0.0000
  38 H           11.7270     1.5730    -3.6448 H            1    LIG   0.0000
  39 H           11.7567    -0.0076    -3.2357 H            1    LIG   0.0000
  40 H            8.9372     0.2072    -5.4812 H            1    LIG   0.0000
  41 H            6.3202     0.1827    -5.3872 H            1    LIG   0.0000
  42 H            5.7725    -0.2895    -3.9230 H            1    LIG   0.0000
  43 H            5.7482     1.2910    -4.3331 H            1    LIG   0.0000
  44 H            7.3810     0.9486    -0.6069 H            1    LIG   0.0000
  45 H            6.1557     0.6567    -1.6462 H            1    LIG   0.0000
  46 H            4.0909     5.8363    -2.3192 H            1    LIG   0.0000
  47 H            5.1070     4.9171     1.2612 H            1    LIG   0.0000
  48 H            3.6657     6.2326     2.9215 H            1    LIG   0.0000
  49 H            1.7952     7.9185     2.7347 H            1    LIG   0.0000
  50 H            1.9493     8.8832     1.4262 H            1    LIG   0.0000
  51 H            0.8520     7.6738     1.4243 H            1    LIG   0.0000
  52 H            4.2317     1.5858    -1.9347 H            1    LIG   0.0000
  53 H            3.3958     2.9885    -1.9195 H            1    LIG   0.0000
  54 H            4.3920     1.6555     0.4401 H            1    LIG   0.0000
  55 H            3.5560     3.0582     0.4553 H            1    LIG   0.0000
  56 H            3.2798    -0.4681    -0.0318 H            1    LIG   0.0000
  57 H            1.2213    -1.6840    -0.0167 H            1    LIG   0.0000
  58 H           -0.8712    -0.5255     0.0078 H            1    LIG   0.0000
  59 H           -1.4699     2.6874    -0.7199 H            1    LIG   0.0000
  60 H           -5.6384     3.4476     3.0956 H            1    LIG   0.0000
  61 H           -5.0080     4.2953     1.8503 H            1    LIG   0.0000
  62 H           -5.7974     2.8941     1.5675 H            1    LIG   0.0000
  63 H           -4.6161     1.2890     3.7711 H            1    LIG   0.0000
  64 H           -4.7751     0.7355     2.2430 H            1    LIG   0.0000
  65 H           -3.3131     0.7166     2.9703 H            1    LIG   0.0000
  66 H           -3.4161     3.4189     4.2010 H            1    LIG   0.0000
  67 H           -2.1132     2.8465     3.4001 H            1    LIG   0.0000
  68 H           -2.7858     4.2666     2.9557 H            1    LIG   0.0000
  69 H            1.1560     3.1004     0.0070 H            1    LIG   0.0000
@<TRIPOS>BOND
   1        1        2 1
   2        2        3 1
   3        3        4 2
   4        4        5 1
   5        4        6 1
   6        6        7 1
   7        7        8 1
   8        8        9 2
   9        9       10 1
  10       10       11 2
  11       11       12 1
  12       12       13 1
  13       13       14 1
  14       14       15 2
  15       15       16 1
  16       16       17 1
  17       16       18 1
  18       18       13 2
  19       11       19 1
  20       19        8 1
  21       19       20 1
  22       20       21 1
  23       21       22 1
  24       22       23 ar
  25       23       24 ar
  26       24       25 ar
  27       25       26 ar
  28       26       27 1
  29       27       28 am
  30       28       29 2
  31       28       30 1
  32       30       31 1
  33       31       32 1
  34       31       33 1
  35       31       34 1
  36       26       35 ar
  37       35       22 ar
  38        6       36 1
  39       36        2 2
  40        1       37 1
  41        1       38 1
  42        1       39 1
  43        3       40 1
  44        5       41 1
  45        5       42 1
  46        5       43 1
  47        7       44 1
  48        7       45 1
  49       12       46 1
  50       14       47 1
  51       15       48 1
  52       17       49 1
  53       17       50 1
  54       17       51 1
  55       20       52 1
  56       20       53 1
  57       21       54 1
  58       21       55 1
  59       23       56 1
  60       24       57 1
  61       25       58 1
  62       27       59 1
  63       32       60 1
  64       32       61 1
  65       32       62 1
  66       33       63 1
  67       33       64 1
  68       33       65 1
  69       34       66 1
  70       34       67 1
  71       34       68 1
  72       35       69 1

@<TRIPOS>MOLECULE

  69   72
SMALL
USER_CHARGES
@<TRIPOS>ATOM
   1 C1          11.3332     0.6734    -3.8331 C.3          1    LIG   0.0000
   2 C2           9.8356     0.7118    -3.5757 C.2          1    LIG   0.0000
   3 C3           8.8206     0.4518    -4.5186 C.2          1    LIG   0.0000
   4 C4           7.6490     0.6036    -3.8437 C.2          1    LIG   0.0000
   5 C5           6.2530     0.4323    -4.4211 C.3          1    LIG   0.0000
   6 N6           7.9514     0.9412    -2.5602 N.pl3        1    LIG   0.0000
   7 C7           6.9800     1.2003    -1.4877 C.3          1    LIG   0.0000
   8 C8           6.6190     2.6765    -1.4768 C.2          1    LIG   0.0000
   9 N9           7.4560     3.6856    -1.4799 N.2          1    LIG   0.0000
  10 N10          6.7842     4.8230    -1.4650 N.2          1    LIG   0.0000
  11 C11          5.5003     4.5622    -1.4602 C.2          1    LIG   0.0000
  12 N12          4.4650     5.4998    -1.4551 N.pl3        1    LIG   0.0000
  13 C13          3.9508     5.9684    -0.2398 C.2          1    LIG   0.0000
  14 C14          4.4208     7.0915     0.4734 C.2          1    LIG   0.0000
  15 C15          3.6390     7.1764     1.5843 C.2          1    LIG   0.0000
  16 N16          2.7556     6.1421     1.5200 N.pl3        1    LIG   0.0000
  17 C17          1.7228     5.8582     2.5269 C.3          1    LIG   0.0000
  18 N18          2.9552     5.4382     0.4296 N.2          1    LIG   0.0000
  19 N19          5.3665     3.2075    -1.4659 N.pl3        1    LIG   0.0000
  20 C20          4.1046     2.4553    -1.4576 C.3          1    LIG   0.0000
  21 C21          3.6831     2.1886    -0.0218 C.3          1    LIG   0.0000
  22 C22          2.3775     1.4103    -0.0133 C.ar         1    LIG   0.0000
  23 C23          2.4069     0.0197    -0.0206 C.ar         1    LIG   0.0000
  24 C24          1.2073    -0.6841    -0.0121 C.ar         1    LIG   0.0000
  25 C25         -0.0116    -0.0145     0.0026 C.ar         1    LIG   0.0000
  26 C26         -0.0175     1.3767     0.0098 C.ar         1    LIG   0.0000
  27 N27         -1.2385     2.0615     0.0249 N.am         1    LIG   0.0000
  28 C28         -2.2878     1.6076    -0.7299 C.2          1    LIG   0.0000
  29 O29         -3.0962     2.3825    -1.1612 O.2          1    LIG   0.0000
  30 O30         -2.4088     0.3275    -0.9808 O.3          1    LIG   0.0000
  31 C31         -3.7277    -0.1189    -1.2595 C.3          1    LIG   0.0000
  32 C32         -3.7806    -1.6348    -1.1621 C.3          1    LIG   0.0000
  33 C33         -4.6912     0.4875    -0.2523 C.3          1    LIG   0.0000
  34 C34         -4.1230     0.3128    -2.6622 C.3          1    LIG   0.0000
  35 C35          1.1700     2.1005     0.0019 C.ar         1    LIG   0.0000
  36 N36          9.2565     0.9964    -2.4340 N.2          1    LIG   0.0000
  37 H           11.5010     0.4293    -4.7883 H            1    LIG   0.0000
  38 H           11.7270     1.5730    -3.6448 H            1    LIG   0.0000
  39 H           11.7567    -0.0076    -3.2357 H            1    LIG   0.0000
  40 H            8.9372     0.2072    -5.4812 H            1    LIG   0.0000
  41 H            6.3202     0.1827    -5.3872 H            1    LIG   0.0000
  42 H            5.7725    -0.2895    -3.9230 H            1    LIG   0.0000
  43 H            5.7482     1.2910    -4.3331 H            1    LIG   0.0000
  44 H            7.3810     0.9486    -0.6069 H            1    LIG   0.0000
  45 H            6.1557     0.6567    -1.6462 H            1    LIG   0.0000
  46 H            4.0909     5.8363    -2.3192 H            1    LIG   0.0000
  47 H            5.1723     7.6991     0.2161 H            1    LIG   0.0000
  48 H            3.7012     7.8645     2.3072 H            1    LIG   0.0000
  49 H            1.7758     6.5370     3.2593 H            1    LIG   0.0000
  50 H            0.8199     5.8994     2.0990 H            1    LIG   0.0000
  51 H            1.8701     4.9452     2.9073 H            1    LIG   0.0000
  52 H            4.2317     1.5858    -1.9347 H            1    LIG   0.0000
  53 H            3.3958     2.9885    -1.9195 H            1    LIG   0.0000
  54 H            4.3920     1.6555     0.4401 H            1    LIG   0.0000
  55 H            3.5560     3.0582     0.4553 H            1    LIG   0.0000
  56 H            3.2798    -0.4681    -0.0318 H            1    LIG   0.0000
  57 H            1.2213    -1.6840    -0.0167 H            1    LIG   0.0000
  58 H           -0.8712    -0.5255     0.0078 H            1    LIG   0.0000
  59 H           -1.3447     2.8820     0.5866 H            1    LIG   0.0000
  60 H           -4.7095    -1.9492    -1.3583 H            1    LIG   0.0000
  61 H           -3.1468    -2.0338    -1.8247 H            1    LIG   0.0000
  62 H           -3.5206    -1.9189    -0.2392 H            1    LIG   0.0000
  63 H           -5.6200     0.1731    -0.4485 H            1    LIG   0.0000
  64 H           -4.4311     0.2035     0.6706 H            1    LIG   0.0000
  65 H           -4.6563     1.4849    -0.3164 H            1    LIG   0.0000
  66 H           -5.0518    -0.0015    -2.8584 H            1    LIG   0.0000
  67 H           -4.0881     1.3102    -2.7263 H            1    LIG   0.0000
  68 H           -3.4891    -0.0861    -3.3248 H            1    LIG   0.0000
  69 H            1.1560     3.1004     0.0070 H            1    LIG   0.0000
@<TRIPOS>BOND
   1        1        2 1
   2        2        3 1
   3        3        4 2
   4        4        5 1
   5        4        6 1
   6        6        7 1
   7        7        8 1
   8        8        9 2
   9        9       10 1
  10       10       11 2
  11       11       12 1
  12       12       13 1
  13       13       14 1
  14       14       15 2
  15       15       16 1
  16       16       17 1
  17       16       18 1
  18       18       13 2
  19       11       19 1
  20       19        8 1
  21       19       20 1
  22       20       21 1
  23       21       22 1
  24       22       23 ar
  25       23       24 ar
  26       24       25 ar
  27       25       26 ar
  28       26       27 1
  29       27       28 am
  30       28       29 2
  31       28       30 1
  32       30       31 1
  33       31       32 1
  34       31       33 1
  35       31       34 1
  36       26       35 ar
  37       35       22 ar
  38        6       36 1
  39       36        2 2
  40        1       37 1
  41        1       38 1
  42        1       39 1
  43        3       40 1
  44        5       41 1
  45        5       42 1
  46        5       43 1
  47        7       44 1
  48        7       45 1
  49       12       46 1
  50       14       47 1
  51       15       48 1
  52       17       49 1
  53       17       50 1
  54       17       51 1
  55       20       52 1
  56       20       53 1
  57       21       54 1
  58       21       55 1
  59       23       56 1
  60       24       57 1
  61       25       58 1
  62       27       59 1
  63       32       60 1
  64       32       61 1
  65       32       62 1
  66       33       63 1
  67       33       64 1
  68       33       65 1
  69       34       66 1
  70       34       67 1
  71       34       68 1
  72       35       69 1

@<TRIPOS>MOLECULE

  69   72
SMALL
USER_CHARGES
@<TRIPOS>ATOM
   1 C1          11.2670     0.0992    -3.7544 C.3          1    LIG   0.0000
   2 C2           9.8067     0.4635    -3.5419 C.2          1    LIG   0.0000
   3 C3           8.8474     0.6848    -4.5507 C.2          1    LIG   0.0000
   4 C4           7.6921     0.9810    -3.8958 C.2          1    LIG   0.0000
   5 C5           6.3536     1.3039    -4.5406 C.3          1    LIG   0.0000
   6 N6           7.9514     0.9412    -2.5602 N.pl3        1    LIG   0.0000
   7 C7           6.9800     1.2003    -1.4877 C.3          1    LIG   0.0000
   8 C8           6.6190     2.6765    -1.4768 C.2          1    LIG   0.0000
   9 N9           7.4560     3.6856    -1.4799 N.2          1    LIG   0.0000
  10 N10          6.7842     4.8230    -1.4650 N.2          1    LIG   0.0000
  11 C11          5.5003     4.5622    -1.4602 C.2          1    LIG   0.0000
  12 N12          4.4650     5.4998    -1.4551 N.pl3        1    LIG   0.0000
  13 C13          3.3193     5.2820    -2.2303 C.2          1    LIG   0.0000
  14 C14          3.2996     4.7494    -3.5368 C.2          1    LIG   0.0000
  15 C15          1.9886     4.7146    -3.9008 C.2          1    LIG   0.0000
  16 N16          1.2783     5.2112    -2.8505 N.pl3        1    LIG   0.0000
  17 C17         -0.1846     5.3536    -2.8205 C.3          1    LIG   0.0000
  18 N18          2.0854     5.5404    -1.8683 N.2          1    LIG   0.0000
  19 N19          5.3665     3.2075    -1.4659 N.pl3        1    LIG   0.0000
  20 C20          4.1046     2.4553    -1.4576 C.3          1    LIG   0.0000
  21 C21          3.6831     2.1886    -0.0218 C.3          1    LIG   0.0000
  22 C22          2.3775     1.4103    -0.0133 C.ar         1    LIG   0.0000
  23 C23          2.4069     0.0197    -0.0206 C.ar         1    LIG   0.0000
  24 C24          1.2073    -0.6841    -0.0121 C.ar         1    LIG   0.0000
  25 C25         -0.0116    -0.0145     0.0026 C.ar         1    LIG   0.0000
  26 C26         -0.0175     1.3767     0.0098 C.ar         1    LIG   0.0000
  27 N27         -1.2385     2.0615     0.0249 N.am         1    LIG   0.0000
  28 C28         -2.1162     1.8742     1.0600 C.2          1    LIG   0.0000
  29 O29         -2.0306     0.8958     1.7496 O.2          1    LIG   0.0000
  30 O30         -3.0488     2.7630     1.2970 O.3          1    LIG   0.0000
  31 C31         -3.6080     2.7295     2.6018 C.3          1    LIG   0.0000
  32 C32         -4.6687     3.8110     2.7265 C.3          1    LIG   0.0000
  33 C33         -4.2401     1.3691     2.8473 C.3          1    LIG   0.0000
  34 C34         -2.5136     2.9724     3.6284 C.3          1    LIG   0.0000
  35 C35          1.1700     2.1005     0.0019 C.ar         1    LIG   0.0000
  36 N36          9.2143     0.6308    -2.3839 N.2          1    LIG   0.0000
  37 H           11.4553     0.0349    -4.7344 H            1    LIG   0.0000
  38 H           11.8488     0.8042    -3.3488 H            1    LIG   0.0000
  39 H           11.4577    -0.7810    -3.3198 H            1    LIG   0.0000
  40 H            8.9866     0.6348    -5.5397 H            1    LIG   0.0000
  41 H            6.4442     1.2625    -5.5356 H            1    LIG   0.0000
  42 H            5.6698     0.6388    -4.2402 H            1    LIG   0.0000
  43 H            6.0662     2.2227    -4.2700 H            1    LIG   0.0000
  44 H            7.3810     0.9486    -0.6069 H            1    LIG   0.0000
  45 H            6.1557     0.6567    -1.6462 H            1    LIG   0.0000
  46 H            4.5419     6.3265    -0.8978 H            1    LIG   0.0000
  47 H            4.0856     4.4580    -4.0820 H            1    LIG   0.0000
  48 H            1.6188     4.3879    -4.7706 H            1    LIG   0.0000
  49 H           -0.5684     5.0341    -3.6869 H            1    LIG   0.0000
  50 H           -0.5572     4.8084    -2.0696 H            1    LIG   0.0000
  51 H           -0.4232     6.3152    -2.6847 H            1    LIG   0.0000
  52 H            4.2317     1.5858    -1.9347 H            1    LIG   0.0000
  53 H            3.3958     2.9885    -1.9195 H            1    LIG   0.0000
  54 H            4.3920     1.6555     0.4401 H            1    LIG   0.0000
  55 H            3.5560     3.0582     0.4553 H            1    LIG   0.0000
  56 H            3.2798    -0.4681    -0.0318 H            1    LIG   0.0000
  57 H            1.2213    -1.6840    -0.0167 H            1    LIG   0.0000
  58 H           -0.8712    -0.5255     0.0078 H            1    LIG   0.0000
  59 H           -1.4699     2.6874    -0.7199 H            1    LIG   0.0000
  60 H           -5.0625     3.7874     3.6454 H            1    LIG   0.0000
  61 H           -4.2528     4.7060     2.5649 H            1    LIG   0.0000
  62 H           -5.3887     3.6512     2.0511 H            1    LIG   0.0000
  63 H           -4.6338     1.3455     3.7663 H            1    LIG   0.0000
  64 H           -4.9600     1.2093     2.1720 H            1    LIG   0.0000
  65 H           -3.5422     0.6576     2.7653 H            1    LIG   0.0000
  66 H           -2.9074     2.9487     4.5473 H            1    LIG   0.0000
  67 H           -1.8158     2.2609     3.5463 H            1    LIG   0.0000
  68 H           -2.0978     3.8673     3.4668 H            1    LIG   0.0000
  69 H            1.1560     3.1004     0.0070 H            1    LIG   0.0000
@<TRIPOS>BOND
   1        1        2 1
   2        2        3 1
   3        3        4 2
   4        4        5 1
   5        4        6 1
   6        6        7 1
   7        7        8 1
   8        8        9 2
   9        9       10 1
  10       10       11 2
  11       11       12 1
  12       12       13 1
  13       13       14 1
  14       14       15 2
  15       15       16 1
  16       16       17 1
  17       16       18 1
  18       18       13 2
  19       11       19 1
  20       19        8 1
  21       19       20 1
  22       20       21 1
  23       21       22 1
  24       22       23 ar
  25       23       24 ar
  26       24       25 ar
  27       25       26 ar
  28       26       27 1
  29       27       28 am
  30       28       29 2
  31       28       30 1
  32       30       31 1
  33       31       32 1
  34       31       33 1
  35       31       34 1
  36       26       35 ar
  37       35       22 ar
  38        6       36 1
  39       36        2 2
  40        1       37 1
  41        1       38 1
  42        1       39 1
  43        3       40 1
  44        5       41 1
  45        5       42 1
  46        5       43 1
  47        7       44 1
  48        7       45 1
  49       12       46 1
  50       14       47 1
  51       15       48 1
  52       17       49 1
  53       17       50 1
  54       17       51 1
  55       20       52 1
  56       20       53 1
  57       21       54 1
  58       21       55 1
  59       23       56 1
  60       24       57 1
  61       25       58 1
  62       27       59 1
  63       32       60 1
  64       32       61 1
  65       32       62 1
  66       33       63 1
  67       33       64 1
  68       33       65 1
  69       34       66 1
  70       34       67 1
  71       34       68 1
  72       35       69 1

@<TRIPOS>MOLECULE

  69   72
SMALL
USER_CHARGES
@<TRIPOS>ATOM
   1 C1          11.2670     0.0992    -3.7544 C.3          1    LIG   0.0000
   2 C2           9.8067     0.4635    -3.5419 C.2          1    LIG   0.0000
   3 C3           8.8474     0.6848    -4.5507 C.2          1    LIG   0.0000
   4 C4           7.6921     0.9810    -3.8958 C.2          1    LIG   0.0000
   5 C5           6.3536     1.3039    -4.5406 C.3          1    LIG   0.0000
   6 N6           7.9514     0.9412    -2.5602 N.pl3        1    LIG   0.0000
   7 C7           6.9800     1.2003    -1.4877 C.3          1    LIG   0.0000
   8 C8           6.6190     2.6765    -1.4768 C.2          1    LIG   0.0000
   9 N9           7.4560     3.6856    -1.4799 N.2          1    LIG   0.0000
  10 N10          6.7842     4.8230    -1.4650 N.2          1    LIG   0.0000
  11 C11          5.5003     4.5622    -1.4602 C.2          1    LIG   0.0000
  12 N12          4.4650     5.4998    -1.4551 N.pl3        1    LIG   0.0000
  13 C13          3.3193     5.2820    -2.2303 C.2          1    LIG   0.0000
  14 C14          3.2996     4.7494    -3.5368 C.2          1    LIG   0.0000
  15 C15          1.9886     4.7146    -3.9008 C.2          1    LIG   0.0000
  16 N16          1.2783     5.2112    -2.8505 N.pl3        1    LIG   0.0000
  17 C17         -0.1846     5.3536    -2.8205 C.3          1    LIG   0.0000
  18 N18          2.0854     5.5404    -1.8683 N.2          1    LIG   0.0000
  19 N19          5.3665     3.2075    -1.4659 N.pl3        1    LIG   0.0000
  20 C20          4.1046     2.4553    -1.4576 C.3          1    LIG   0.0000
  21 C21          3.6831     2.1886    -0.0218 C.3          1    LIG   0.0000
  22 C22          2.3775     1.4103    -0.0133 C.ar         1    LIG   0.0000
  23 C23          2.4069     0.0197    -0.0206 C.ar         1    LIG   0.0000
  24 C24          1.2073    -0.6841    -0.0121 C.ar         1    LIG   0.0000
  25 C25         -0.0116    -0.0145     0.0026 C.ar         1    LIG   0.0000
  26 C26         -0.0175     1.3767     0.0098 C.ar         1    LIG   0.0000
  27 N27         -1.2385     2.0615     0.0249 N.am         1    LIG   0.0000
  28 C28         -2.1360     1.8842    -0.9949 C.2          1    LIG   0.0000
  29 O29         -3.2920     2.1617    -0.8318 O.2          1    LIG   0.0000
  30 O30         -1.7322     1.4116    -2.1480 O.3          1    LIG   0.0000
  31 C31         -2.5909     1.6699    -3.2491 C.3          1    LIG   0.0000
  32 C32         -1.9945     1.0650    -4.5095 C.3          1    LIG   0.0000
  33 C33         -3.9535     1.0501    -2.9853 C.3          1    LIG   0.0000
  34 C34         -2.7439     3.1712    -3.4310 C.3          1    LIG   0.0000
  35 C35          1.1700     2.1005     0.0019 C.ar         1    LIG   0.0000
  36 N36          9.2143     0.6308    -2.3839 N.2          1    LIG   0.0000
  37 H           11.4553     0.0349    -4.7344 H            1    LIG   0.0000
  38 H           11.8488     0.8042    -3.3488 H            1    LIG   0.0000
  39 H           11.4577    -0.7810    -3.3198 H            1    LIG   0.0000
  40 H            8.9866     0.6348    -5.5397 H            1    LIG   0.0000
  41 H            6.4442     1.2625    -5.5356 H            1    LIG   0.0000
  42 H            5.6698     0.6388    -4.2402 H            1    LIG   0.0000
  43 H            6.0662     2.2227    -4.2700 H            1    LIG   0.0000
  44 H            7.3810     0.9486    -0.6069 H            1    LIG   0.0000
  45 H            6.1557     0.6567    -1.6462 H            1    LIG   0.0000
  46 H            4.5419     6.3265    -0.8978 H            1    LIG   0.0000
  47 H            4.0856     4.4580    -4.0820 H            1    LIG   0.0000
  48 H            1.6188     4.3879    -4.7706 H            1    LIG   0.0000
  49 H           -0.5684     5.0341    -3.6869 H            1    LIG   0.0000
  50 H           -0.5572     4.8084    -2.0696 H            1    LIG   0.0000
  51 H           -0.4232     6.3152    -2.6847 H            1    LIG   0.0000
  52 H            4.2317     1.5858    -1.9347 H            1    LIG   0.0000
  53 H            3.3958     2.9885    -1.9195 H            1    LIG   0.0000
  54 H            4.3920     1.6555     0.4401 H            1    LIG   0.0000
  55 H            3.5560     3.0582     0.4553 H            1    LIG   0.0000
  56 H            3.2798    -0.4681    -0.0318 H            1    LIG   0.0000
  57 H            1.2213    -1.6840    -0.0167 H            1    LIG   0.0000
  58 H           -0.8712    -0.5255     0.0078 H            1    LIG   0.0000
  59 H           -1.4555     2.6801     0.7800 H            1    LIG   0.0000
  60 H           -2.5993     1.2469    -5.2849 H            1    LIG   0.0000
  61 H           -1.0981     1.4728    -4.6831 H            1    LIG   0.0000
  62 H           -1.8939     0.0773    -4.3899 H            1    LIG   0.0000
  63 H           -4.5582     1.2320    -3.7606 H            1    LIG   0.0000
  64 H           -3.8528     0.0624    -2.8656 H            1    LIG   0.0000
  65 H           -4.3458     1.4481    -2.1560 H            1    LIG   0.0000
  66 H           -3.3486     3.3532    -4.2063 H            1    LIG   0.0000
  67 H           -3.1362     3.5692    -2.6017 H            1    LIG   0.0000
  68 H           -1.8474     3.5790    -3.6045 H            1    LIG   0.0000
  69 H            1.1560     3.1004     0.0070 H            1    LIG   0.0000
@<TRIPOS>BOND
   1        1        2 1
   2        2        3 1
   3        3        4 2
   4        4        5 1
   5        4        6 1
   6        6        7 1
   7        7        8 1
   8        8        9 2
   9        9       10 1
  10       10       11 2
  11       11       12 1
  12       12       13 1
  13       13       14 1
  14       14       15 2
  15       15       16 1
  16       16       17 1
  17       16       18 1
  18       18       13 2
  19       11       19 1
  20       19        8 1
  21       19       20 1
  22       20       21 1
  23       21       22 1
  24       22       23 ar
  25       23       24 ar
  26       24       25 ar
  27       25       26 ar
  28       26       27 1
  29       27       28 am
  30       28       29 2
  31       28       30 1
  32       30       31 1
  33       31       32 1
  34       31       33 1
  35       31       34 1
  36       26       35 ar
  37       35       22 ar
  38        6       36 1
  39       36        2 2
  40        1       37 1
  41        1       38 1
  42        1       39 1
  43        3       40 1
  44        5       41 1
  45        5       42 1
  46        5       43 1
  47        7       44 1
  48        7       45 1
  49       12       46 1
  50       14       47 1
  51       15       48 1
  52       17       49 1
  53       17       50 1
  54       17       51 1
  55       20       52 1
  56       20       53 1
  57       21       54 1
  58       21       55 1
  59       23       56 1
  60       24       57 1
  61       25       58 1
  62       27       59 1
  63       32       60 1
  64       32       61 1
  65       32       62 1
  66       33       63 1
  67       33       64 1
  68       33       65 1
  69       34       66 1
  70       34       67 1
  71       34       68 1
  72       35       69 1

@<TRIPOS>MOLECULE

  69   72
SMALL
USER_CHARGES
@<TRIPOS>ATOM
   1 C1          11.2670     0.0992    -3.7544 C.3          1    LIG   0.0000
   2 C2           9.8067     0.4635    -3.5419 C.2          1    LIG   0.0000
   3 C3           8.8474     0.6848    -4.5507 C.2          1    LIG   0.0000
   4 C4           7.6921     0.9810    -3.8958 C.2          1    LIG   0.0000
   5 C5           6.3536     1.3039    -4.5406 C.3          1    LIG   0.0000
   6 N6           7.9514     0.9412    -2.5602 N.pl3        1    LIG   0.0000
   7 C7           6.9800     1.2003    -1.4877 C.3          1    LIG   0.0000
   8 C8           6.6190     2.6765    -1.4768 C.2          1    LIG   0.0000
   9 N9           7.4560     3.6856    -1.4799 N.2          1    LIG   0.0000
  10 N10          6.7842     4.8230    -1.4650 N.2          1    LIG   0.0000
  11 C11          5.5003     4.5622    -1.4602 C.2          1    LIG   0.0000
  12 N12          4.4650     5.4998    -1.4551 N.pl3        1    LIG   0.0000
  13 C13          3.3193     5.2820    -2.2303 C.2          1    LIG   0.0000
  14 C14          2.1567     4.6038    -1.8068 C.2          1    LIG   0.0000
  15 C15          1.3083     4.6271    -2.8709 C.2          1    LIG   0.0000
  16 N16          1.9546     5.2872    -3.8713 N.pl3        1    LIG   0.0000
  17 C17          1.3952     5.5390    -5.2073 C.3          1    LIG   0.0000
  18 N18          3.1454     5.6696    -3.4712 N.2          1    LIG   0.0000
  19 N19          5.3665     3.2075    -1.4659 N.pl3        1    LIG   0.0000
  20 C20          4.1046     2.4553    -1.4576 C.3          1    LIG   0.0000
  21 C21          3.6831     2.1886    -0.0218 C.3          1    LIG   0.0000
  22 C22          2.3775     1.4103    -0.0133 C.ar         1    LIG   0.0000
  23 C23          2.4069     0.0197    -0.0206 C.ar         1    LIG   0.0000
  24 C24          1.2073    -0.6841    -0.0121 C.ar         1    LIG   0.0000
  25 C25         -0.0116    -0.0145     0.0026 C.ar         1    LIG   0.0000
  26 C26         -0.0175     1.3767     0.0098 C.ar         1    LIG   0.0000
  27 N27         -1.2385     2.0615     0.0249 N.am         1    LIG   0.0000
  28 C28         -2.1360     1.8842    -0.9949 C.2          1    LIG   0.0000
  29 O29         -1.7661     1.4513    -2.0512 O.2          1    LIG   0.0000
  30 O30         -3.3980     2.1872    -0.8169 O.3          1    LIG   0.0000
  31 C31         -4.1498     2.3958    -2.0033 C.3          1    LIG   0.0000
  32 C32         -5.5857     2.7370    -1.6397 C.3          1    LIG   0.0000
  33 C33         -3.5411     3.5424    -2.7939 C.3          1    LIG   0.0000
  34 C34         -4.1275     1.1311    -2.8462 C.3          1    LIG   0.0000
  35 C35          1.1700     2.1005     0.0019 C.ar         1    LIG   0.0000
  36 N36          9.2143     0.6308    -2.3839 N.2          1    LIG   0.0000
  37 H           11.4553     0.0349    -4.7344 H            1    LIG   0.0000
  38 H           11.8488     0.8042    -3.3488 H            1    LIG   0.0000
  39 H           11.4577    -0.7810    -3.3198 H            1    LIG   0.0000
  40 H            8.9866     0.6348    -5.5397 H            1    LIG   0.0000
  41 H            6.4442     1.2625    -5.5356 H            1    LIG   0.0000
  42 H            5.6698     0.6388    -4.2402 H            1    LIG   0.0000
  43 H            6.0662     2.2227    -4.2700 H            1    LIG   0.0000
  44 H            7.3810     0.9486    -0.6069 H            1    LIG   0.0000
  45 H            6.1557     0.6567    -1.6462 H            1    LIG   0.0000
  46 H            4.5419     6.3265    -0.8978 H            1    LIG   0.0000
  47 H            1.9905     4.1917    -0.9110 H            1    LIG   0.0000
  48 H            0.3890     4.2355    -2.9103 H            1    LIG   0.0000
  49 H            0.4762     5.1487    -5.2628 H            1    LIG   0.0000
  50 H            1.3491     6.5247    -5.3690 H            1    LIG   0.0000
  51 H            1.9799     5.1148    -5.8988 H            1    LIG   0.0000
  52 H            4.2317     1.5858    -1.9347 H            1    LIG   0.0000
  53 H            3.3958     2.9885    -1.9195 H            1    LIG   0.0000
  54 H            4.3920     1.6555     0.4401 H            1    LIG   0.0000
  55 H            3.5560     3.0582     0.4553 H            1    LIG   0.0000
  56 H            3.2798    -0.4681    -0.0318 H            1    LIG   0.0000
  57 H            1.2213    -1.6840    -0.0167 H            1    LIG   0.0000
  58 H           -0.8712    -0.5255     0.0078 H            1    LIG   0.0000
  59 H           -1.4555     2.6801     0.7800 H            1    LIG   0.0000
  60 H           -6.1152     2.8839    -2.4752 H            1    LIG   0.0000
  61 H           -5.9862     1.9826    -1.1196 H            1    LIG   0.0000
  62 H           -5.6004     3.5690    -1.0852 H            1    LIG   0.0000
  63 H           -4.0706     3.6893    -3.6294 H            1    LIG   0.0000
  64 H           -3.5558     4.3744    -2.2393 H            1    LIG   0.0000
  65 H           -2.5965     3.3179    -3.0330 H            1    LIG   0.0000
  66 H           -4.6570     1.2780    -3.6817 H            1    LIG   0.0000
  67 H           -3.1828     0.9066    -3.0854 H            1    LIG   0.0000
  68 H           -4.5279     0.3767    -2.3261 H            1    LIG   0.0000
  69 H            1.1560     3.1004     0.0070 H            1    LIG   0.0000
@<TRIPOS>BOND
   1        1        2 1
   2        2        3 1
   3        3        4 2
   4        4        5 1
   5        4        6 1
   6        6        7 1
   7        7        8 1
   8        8        9 2
   9        9       10 1
  10       10       11 2
  11       11       12 1
  12       12       13 1
  13       13       14 1
  14       14       15 2
  15       15       16 1
  16       16       17 1
  17       16       18 1
  18       18       13 2
  19       11       19 1
  20       19        8 1
  21       19       20 1
  22       20       21 1
  23       21       22 1
  24       22       23 ar
  25       23       24 ar
  26       24       25 ar
  27       25       26 ar
  28       26       27 1
  29       27       28 am
  30       28       29 2
  31       28       30 1
  32       30       31 1
  33       31       32 1
  34       31       33 1
  35       31       34 1
  36       26       35 ar
  37       35       22 ar
  38        6       36 1
  39       36        2 2
  40        1       37 1
  41        1       38 1
  42        1       39 1
  43        3       40 1
  44        5       41 1
  45        5       42 1
  46        5       43 1
  47        7       44 1
  48        7       45 1
  49       12       46 1
  50       14       47 1
  51       15       48 1
  52       17       49 1
  53       17       50 1
  54       17       51 1
  55       20       52 1
  56       20       53 1
  57       21       54 1
  58       21       55 1
  59       23       56 1
  60       24       57 1
  61       25       58 1
  62       27       59 1
  63       32       60 1
  64       32       61 1
  65       32       62 1
  66       33       63 1
  67       33       64 1
  68       33       65 1
  69       34       66 1
  70       34       67 1
  71       34       68 1
  72       35       69 1

