@<TRIPOS>MOLECULE
*****
 69 72 0 0 0
SMALL
USER_CHARGES

@<TRIPOS>ATOM
      1 C1         11.2670    0.0992   -3.7544 C.3     1  LIG1        0.0000
      2 C2          9.8067    0.4635   -3.5419 C.2     1  LIG1        0.0000
      3 C3          8.8474    0.6848   -4.5507 C.2     1  LIG1        0.0000
      4 C4          7.6921    0.9810   -3.8958 C.2     1  LIG1        0.0000
      5 C5          6.3536    1.3039   -4.5406 C.3     1  LIG1        0.0000
      6 N6          7.9514    0.9412   -2.5602 N.pl3   1  LIG1        0.0000
      7 C7          6.9800    1.2003   -1.4877 C.3     1  LIG1        0.0000
      8 C8          6.6190    2.6765   -1.4768 C.2     1  LIG1        0.0000
      9 N9          7.4560    3.6856   -1.4799 N.2     1  LIG1        0.0000
     10 N10         6.7842    4.8230   -1.4650 N.2     1  LIG1        0.0000
     11 C11         5.5003    4.5622   -1.4602 C.cat   1  LIG1        0.0000
     12 N12         4.4650    5.4998   -1.4551 N.pl3   1  LIG1        0.0000
     13 C13         3.3193    5.2820   -2.2303 C.2     1  LIG1        0.0000
     14 C14         3.2996    4.7494   -3.5368 C.2     1  LIG1        0.0000
     15 C15         1.9886    4.7146   -3.9008 C.2     1  LIG1        0.0000
     16 N16         1.2783    5.2112   -2.8505 N.pl3   1  LIG1        0.0000
     17 C17        -0.1846    5.3536   -2.8205 C.3     1  LIG1        0.0000
     18 N18         2.0854    5.5404   -1.8683 N.2     1  LIG1        0.0000
     19 N19         5.3665    3.2075   -1.4659 N.pl3   1  LIG1        0.0000
     20 C20         4.1046    2.4553   -1.4576 C.3     1  LIG1        0.0000
     21 C21         3.6831    2.1886   -0.0218 C.3     1  LIG1        0.0000
     22 C22         2.3775    1.4103   -0.0133 C.3     1  LIG1        0.0000
     23 C23         2.4069    0.0197   -0.0206 C.3     1  LIG1        0.0000
     24 C24         1.2073   -0.6841   -0.0121 C.3     1  LIG1        0.0000
     25 C25        -0.0116   -0.0145    0.0026 C.3     1  LIG1        0.0000
     26 C26        -0.0175    1.3767    0.0098 C.3     1  LIG1        0.0000
     27 N27        -1.2385    2.0615    0.0249 N.am    1  LIG1        0.0000
     28 C28        -2.1162    1.8742    1.0600 C.2     1  LIG1        0.0000
     29 O29        -2.0306    0.8958    1.7496 O.2     1  LIG1        0.0000
     30 O30        -3.0488    2.7630    1.2970 O.3     1  LIG1        0.0000
     31 C31        -3.6080    2.7295    2.6018 C.3     1  LIG1        0.0000
     32 C32        -4.6687    3.8110    2.7265 C.3     1  LIG1        0.0000
     33 C33        -4.2401    1.3691    2.8473 C.3     1  LIG1        0.0000
     34 C34        -2.5136    2.9724    3.6284 C.3     1  LIG1        0.0000
     35 C35         1.1700    2.1005    0.0019 C.3     1  LIG1        0.0000
     36 N36         9.2143    0.6308   -2.3839 N.2     1  LIG1        0.0000
     37 H          11.4553    0.0349   -4.7344 H       1  LIG1        0.0000
     38 H          11.8488    0.8042   -3.3488 H       1  LIG1        0.0000
     39 H          11.4577   -0.7810   -3.3198 H       1  LIG1        0.0000
     40 H           8.9866    0.6348   -5.5397 H       1  LIG1        0.0000
     41 H           6.4442    1.2625   -5.5356 H       1  LIG1        0.0000
     42 H           5.6698    0.6388   -4.2402 H       1  LIG1        0.0000
     43 H           6.0662    2.2227   -4.2700 H       1  LIG1        0.0000
     44 H           7.3810    0.9486   -0.6069 H       1  LIG1        0.0000
     45 H           6.1557    0.6567   -1.6462 H       1  LIG1        0.0000
     46 H           4.5419    6.3265   -0.8978 H       1  LIG1        0.0000
     47 H           4.0856    4.4580   -4.0820 H       1  LIG1        0.0000
     48 H           1.6188    4.3879   -4.7706 H       1  LIG1        0.0000
     49 H          -0.5684    5.0341   -3.6869 H       1  LIG1        0.0000
     50 H          -0.5572    4.8084   -2.0696 H       1  LIG1        0.0000
     51 H          -0.4232    6.3152   -2.6847 H       1  LIG1        0.0000
     52 H           4.2317    1.5858   -1.9347 H       1  LIG1        0.0000
     53 H           3.3958    2.9885   -1.9195 H       1  LIG1        0.0000
     54 H           4.3920    1.6555    0.4401 H       1  LIG1        0.0000
     55 H           3.5560    3.0582    0.4553 H       1  LIG1        0.0000
     56 H           3.2798   -0.4681   -0.0318 H       1  LIG1        0.0000
     57 H           1.2213   -1.6840   -0.0167 H       1  LIG1        0.0000
     58 H          -0.8712   -0.5255    0.0078 H       1  LIG1        0.0000
     59 H          -1.4699    2.6874   -0.7199 H       1  LIG1        0.0000
     60 H          -5.0625    3.7874    3.6454 H       1  LIG1        0.0000
     61 H          -4.2528    4.7060    2.5649 H       1  LIG1        0.0000
     62 H          -5.3887    3.6512    2.0511 H       1  LIG1        0.0000
     63 H          -4.6338    1.3455    3.7663 H       1  LIG1        0.0000
     64 H          -4.9600    1.2093    2.1720 H       1  LIG1        0.0000
     65 H          -3.5422    0.6576    2.7653 H       1  LIG1        0.0000
     66 H          -2.9074    2.9487    4.5473 H       1  LIG1        0.0000
     67 H          -1.8158    2.2609    3.5463 H       1  LIG1        0.0000
     68 H          -2.0978    3.8673    3.4668 H       1  LIG1        0.0000
     69 H           1.1560    3.1004    0.0070 H       1  LIG1        0.0000
@<TRIPOS>BOND
     1     1     2    1
     2     2     3    1
     3     3     4    2
     4     4     5    1
     5     4     6    1
     6     6     7    1
     7     7     8    1
     8     8     9    2
     9     9    10    1
    10    10    11    2
    11    11    12    1
    12    12    13    1
    13    13    14    1
    14    14    15    2
    15    15    16    1
    16    16    17    1
    17    16    18    1
    18    18    13    2
    19    11    19    1
    20    19     8    1
    21    19    20    1
    22    20    21    1
    23    21    22    1
    24    22    23   ar
    25    23    24   ar
    26    24    25   ar
    27    25    26   ar
    28    26    27    1
    29    27    28   am
    30    28    29    2
    31    28    30    1
    32    30    31    1
    33    31    32    1
    34    31    33    1
    35    31    34    1
    36    26    35   ar
    37    35    22   ar
    38     6    36    1
    39    36     2    2
    40     1    37    1
    41     1    38    1
    42     1    39    1
    43     3    40    1
    44     5    41    1
    45     5    42    1
    46     5    43    1
    47     7    44    1
    48     7    45    1
    49    12    46    1
    50    14    47    1
    51    15    48    1
    52    17    49    1
    53    17    50    1
    54    17    51    1
    55    20    52    1
    56    20    53    1
    57    21    54    1
    58    21    55    1
    59    23    56    1
    60    24    57    1
    61    25    58    1
    62    27    59    1
    63    32    60    1
    64    32    61    1
    65    32    62    1
    66    33    63    1
    67    33    64    1
    68    33    65    1
    69    34    66    1
    70    34    67    1
    71    34    68    1
    72    35    69    1
