@<TRIPOS>MOLECULE
*****
 69 72 0 0 0
SMALL
USER_CHARGES

@<TRIPOS>ATOM
      1 C1          8.7115    0.6067   -6.1114 C.3     1  LIG1        0.0000
      2 C2          7.8328    0.4730   -4.8784 C.2     1  LIG1        0.0000
      3 C3          6.6596   -0.3011   -4.7707 C.2     1  LIG1        0.0000
      4 C4          6.2167   -0.1157   -3.4976 C.2     1  LIG1        0.0000
      5 C5          4.9742   -0.7385   -2.8811 C.3     1  LIG1        0.0000
      6 N6          7.0830    0.7312   -2.8771 N.pl3   1  LIG1        0.0000
      7 C7          6.9800    1.2003   -1.4877 C.3     1  LIG1        0.0000
      8 C8          6.6190    2.6765   -1.4768 C.2     1  LIG1        0.0000
      9 N9          7.4560    3.6856   -1.4799 N.2     1  LIG1        0.0000
     10 N10         6.7842    4.8230   -1.4650 N.2     1  LIG1        0.0000
     11 C11         5.5003    4.5622   -1.4602 C.cat   1  LIG1        0.0000
     12 N12         4.4650    5.4998   -1.4551 N.pl3   1  LIG1        0.0000
     13 C13         3.9508    5.9684   -0.2398 C.2     1  LIG1        0.0000
     14 C14         4.3850    5.5738    1.0435 C.2     1  LIG1        0.0000
     15 C15         3.6170    6.2727    1.9234 C.2     1  LIG1        0.0000
     16 N16         2.7694    7.0370    1.1807 N.pl3   1  LIG1        0.0000
     17 C17         1.7608    7.9512    1.7359 C.3     1  LIG1        0.0000
     18 N18         2.9843    6.8440   -0.1003 N.2     1  LIG1        0.0000
     19 N19         5.3665    3.2075   -1.4659 N.pl3   1  LIG1        0.0000
     20 C20         4.1046    2.4553   -1.4576 C.3     1  LIG1        0.0000
     21 C21         3.6831    2.1886   -0.0218 C.3     1  LIG1        0.0000
     22 C22         2.3775    1.4103   -0.0133 C.3     1  LIG1        0.0000
     23 C23         2.4069    0.0197   -0.0206 C.3     1  LIG1        0.0000
     24 C24         1.2073   -0.6841   -0.0121 C.3     1  LIG1        0.0000
     25 C25        -0.0116   -0.0145    0.0026 C.3     1  LIG1        0.0000
     26 C26        -0.0175    1.3767    0.0098 C.3     1  LIG1        0.0000
     27 N27        -1.2385    2.0615    0.0249 N.am    1  LIG1        0.0000
     28 C28        -2.4163    1.3618    0.0328 C.2     1  LIG1        0.0000
     29 O29        -2.4675    0.2790    0.5477 O.2     1  LIG1        0.0000
     30 O30        -3.4866    1.8746   -0.5216 O.3     1  LIG1        0.0000
     31 C31        -4.6538    1.0684   -0.4586 C.3     1  LIG1        0.0000
     32 C32        -5.8057    1.7904   -1.1385 C.3     1  LIG1        0.0000
     33 C33        -4.3960   -0.2524   -1.1653 C.3     1  LIG1        0.0000
     34 C34        -5.0091    0.8041    0.9954 C.3     1  LIG1        0.0000
     35 C35         1.1700    2.1005    0.0019 C.3     1  LIG1        0.0000
     36 N36         8.0304    1.0612   -3.7231 N.2     1  LIG1        0.0000
     37 H           8.3323    0.0529   -6.8526 H       1  LIG1        0.0000
     38 H           8.7446    1.5652   -6.3947 H       1  LIG1        0.0000
     39 H           9.6357    0.2901   -5.8979 H       1  LIG1        0.0000
     40 H           6.2410   -0.8674   -5.4806 H       1  LIG1        0.0000
     41 H           4.5218   -1.3194   -3.5577 H       1  LIG1        0.0000
     42 H           5.2359   -1.2906   -2.0894 H       1  LIG1        0.0000
     43 H           4.3479   -0.0151   -2.5907 H       1  LIG1        0.0000
     44 H           7.8569    1.0681   -1.0255 H       1  LIG1        0.0000
     45 H           6.2707    0.6801   -1.0120 H       1  LIG1        0.0000
     46 H           4.0909    5.8363   -2.3192 H       1  LIG1        0.0000
     47 H           5.1070    4.9171    1.2612 H       1  LIG1        0.0000
     48 H           3.6657    6.2326    2.9215 H       1  LIG1        0.0000
     49 H           1.7952    7.9185    2.7347 H       1  LIG1        0.0000
     50 H           1.9493    8.8832    1.4262 H       1  LIG1        0.0000
     51 H           0.8520    7.6738    1.4243 H       1  LIG1        0.0000
     52 H           4.2317    1.5858   -1.9347 H       1  LIG1        0.0000
     53 H           3.3958    2.9885   -1.9195 H       1  LIG1        0.0000
     54 H           4.3920    1.6555    0.4401 H       1  LIG1        0.0000
     55 H           3.5560    3.0582    0.4553 H       1  LIG1        0.0000
     56 H           3.2798   -0.4681   -0.0318 H       1  LIG1        0.0000
     57 H           1.2213   -1.6840   -0.0167 H       1  LIG1        0.0000
     58 H          -0.8712   -0.5255    0.0078 H       1  LIG1        0.0000
     59 H          -1.2509    3.0614    0.0299 H       1  LIG1        0.0000
     60 H          -6.6277    1.2226   -1.0941 H       1  LIG1        0.0000
     61 H          -5.9753    2.6594   -0.6736 H       1  LIG1        0.0000
     62 H          -5.5719    1.9643   -2.0951 H       1  LIG1        0.0000
     63 H          -5.2180   -0.8202   -1.1210 H       1  LIG1        0.0000
     64 H          -4.1623   -0.0785   -2.1220 H       1  LIG1        0.0000
     65 H          -3.6382   -0.7274   -0.7180 H       1  LIG1        0.0000
     66 H          -5.8311    0.2363    1.0398 H       1  LIG1        0.0000
     67 H          -4.2513    0.3291    1.4427 H       1  LIG1        0.0000
     68 H          -5.1787    1.6730    1.4604 H       1  LIG1        0.0000
     69 H           1.1560    3.1004    0.0070 H       1  LIG1        0.0000
@<TRIPOS>BOND
     1     1     2    1
     2     2     3    1
     3     3     4    2
     4     4     5    1
     5     4     6    1
     6     6     7    1
     7     7     8    1
     8     8     9    2
     9     9    10    1
    10    10    11    2
    11    11    12    1
    12    12    13    1
    13    13    14    1
    14    14    15    2
    15    15    16    1
    16    16    17    1
    17    16    18    1
    18    18    13    2
    19    11    19    1
    20    19     8    1
    21    19    20    1
    22    20    21    1
    23    21    22    1
    24    22    23   ar
    25    23    24   ar
    26    24    25   ar
    27    25    26   ar
    28    26    27    1
    29    27    28   am
    30    28    29    2
    31    28    30    1
    32    30    31    1
    33    31    32    1
    34    31    33    1
    35    31    34    1
    36    26    35   ar
    37    35    22   ar
    38     6    36    1
    39    36     2    2
    40     1    37    1
    41     1    38    1
    42     1    39    1
    43     3    40    1
    44     5    41    1
    45     5    42    1
    46     5    43    1
    47     7    44    1
    48     7    45    1
    49    12    46    1
    50    14    47    1
    51    15    48    1
    52    17    49    1
    53    17    50    1
    54    17    51    1
    55    20    52    1
    56    20    53    1
    57    21    54    1
    58    21    55    1
    59    23    56    1
    60    24    57    1
    61    25    58    1
    62    27    59    1
    63    32    60    1
    64    32    61    1
    65    32    62    1
    66    33    63    1
    67    33    64    1
    68    33    65    1
    69    34    66    1
    70    34    67    1
    71    34    68    1
    72    35    69    1
