@<TRIPOS>MOLECULE
*****
 69 72 0 0 0
SMALL
USER_CHARGES

@<TRIPOS>ATOM
      1 C1         11.3332    0.6734   -3.8331 C.3     1  LIG1        0.0000
      2 C2          9.8356    0.7118   -3.5757 C.2     1  LIG1        0.0000
      3 C3          8.8206    0.4518   -4.5186 C.2     1  LIG1        0.0000
      4 C4          7.6490    0.6036   -3.8437 C.2     1  LIG1        0.0000
      5 C5          6.2530    0.4323   -4.4211 C.3     1  LIG1        0.0000
      6 N6          7.9514    0.9412   -2.5602 N.pl3   1  LIG1        0.0000
      7 C7          6.9800    1.2003   -1.4877 C.3     1  LIG1        0.0000
      8 C8          6.6190    2.6765   -1.4768 C.2     1  LIG1        0.0000
      9 N9          7.4560    3.6856   -1.4799 N.2     1  LIG1        0.0000
     10 N10         6.7842    4.8230   -1.4650 N.2     1  LIG1        0.0000
     11 C11         5.5003    4.5622   -1.4602 C.cat   1  LIG1        0.0000
     12 N12         4.4650    5.4998   -1.4551 N.pl3   1  LIG1        0.0000
     13 C13         3.9508    5.9684   -0.2398 C.2     1  LIG1        0.0000
     14 C14         4.4208    7.0915    0.4734 C.2     1  LIG1        0.0000
     15 C15         3.6390    7.1764    1.5843 C.2     1  LIG1        0.0000
     16 N16         2.7556    6.1421    1.5200 N.pl3   1  LIG1        0.0000
     17 C17         1.7228    5.8582    2.5269 C.3     1  LIG1        0.0000
     18 N18         2.9552    5.4382    0.4296 N.2     1  LIG1        0.0000
     19 N19         5.3665    3.2075   -1.4659 N.pl3   1  LIG1        0.0000
     20 C20         4.1046    2.4553   -1.4576 C.3     1  LIG1        0.0000
     21 C21         3.6831    2.1886   -0.0218 C.3     1  LIG1        0.0000
     22 C22         2.3775    1.4103   -0.0133 C.3     1  LIG1        0.0000
     23 C23         2.4069    0.0197   -0.0206 C.3     1  LIG1        0.0000
     24 C24         1.2073   -0.6841   -0.0121 C.3     1  LIG1        0.0000
     25 C25        -0.0116   -0.0145    0.0026 C.3     1  LIG1        0.0000
     26 C26        -0.0175    1.3767    0.0098 C.3     1  LIG1        0.0000
     27 N27        -1.2385    2.0615    0.0249 N.am    1  LIG1        0.0000
     28 C28        -2.2878    1.6076   -0.7299 C.2     1  LIG1        0.0000
     29 O29        -3.0962    2.3825   -1.1612 O.2     1  LIG1        0.0000
     30 O30        -2.4088    0.3275   -0.9808 O.3     1  LIG1        0.0000
     31 C31        -3.7277   -0.1189   -1.2595 C.3     1  LIG1        0.0000
     32 C32        -3.7806   -1.6348   -1.1621 C.3     1  LIG1        0.0000
     33 C33        -4.6912    0.4875   -0.2523 C.3     1  LIG1        0.0000
     34 C34        -4.1230    0.3128   -2.6622 C.3     1  LIG1        0.0000
     35 C35         1.1700    2.1005    0.0019 C.3     1  LIG1        0.0000
     36 N36         9.2565    0.9964   -2.4340 N.2     1  LIG1        0.0000
     37 H          11.5010    0.4293   -4.7883 H       1  LIG1        0.0000
     38 H          11.7270    1.5730   -3.6448 H       1  LIG1        0.0000
     39 H          11.7567   -0.0076   -3.2357 H       1  LIG1        0.0000
     40 H           8.9372    0.2072   -5.4812 H       1  LIG1        0.0000
     41 H           6.3202    0.1827   -5.3872 H       1  LIG1        0.0000
     42 H           5.7725   -0.2895   -3.9230 H       1  LIG1        0.0000
     43 H           5.7482    1.2910   -4.3331 H       1  LIG1        0.0000
     44 H           7.3810    0.9486   -0.6069 H       1  LIG1        0.0000
     45 H           6.1557    0.6567   -1.6462 H       1  LIG1        0.0000
     46 H           4.0909    5.8363   -2.3192 H       1  LIG1        0.0000
     47 H           5.1723    7.6991    0.2161 H       1  LIG1        0.0000
     48 H           3.7012    7.8645    2.3072 H       1  LIG1        0.0000
     49 H           1.7758    6.5370    3.2593 H       1  LIG1        0.0000
     50 H           0.8199    5.8994    2.0990 H       1  LIG1        0.0000
     51 H           1.8701    4.9452    2.9073 H       1  LIG1        0.0000
     52 H           4.2317    1.5858   -1.9347 H       1  LIG1        0.0000
     53 H           3.3958    2.9885   -1.9195 H       1  LIG1        0.0000
     54 H           4.3920    1.6555    0.4401 H       1  LIG1        0.0000
     55 H           3.5560    3.0582    0.4553 H       1  LIG1        0.0000
     56 H           3.2798   -0.4681   -0.0318 H       1  LIG1        0.0000
     57 H           1.2213   -1.6840   -0.0167 H       1  LIG1        0.0000
     58 H          -0.8712   -0.5255    0.0078 H       1  LIG1        0.0000
     59 H          -1.3447    2.8820    0.5866 H       1  LIG1        0.0000
     60 H          -4.7095   -1.9492   -1.3583 H       1  LIG1        0.0000
     61 H          -3.1468   -2.0338   -1.8247 H       1  LIG1        0.0000
     62 H          -3.5206   -1.9189   -0.2392 H       1  LIG1        0.0000
     63 H          -5.6200    0.1731   -0.4485 H       1  LIG1        0.0000
     64 H          -4.4311    0.2035    0.6706 H       1  LIG1        0.0000
     65 H          -4.6563    1.4849   -0.3164 H       1  LIG1        0.0000
     66 H          -5.0518   -0.0015   -2.8584 H       1  LIG1        0.0000
     67 H          -4.0881    1.3102   -2.7263 H       1  LIG1        0.0000
     68 H          -3.4891   -0.0861   -3.3248 H       1  LIG1        0.0000
     69 H           1.1560    3.1004    0.0070 H       1  LIG1        0.0000
@<TRIPOS>BOND
     1     1     2    1
     2     2     3    1
     3     3     4    2
     4     4     5    1
     5     4     6    1
     6     6     7    1
     7     7     8    1
     8     8     9    2
     9     9    10    1
    10    10    11    2
    11    11    12    1
    12    12    13    1
    13    13    14    1
    14    14    15    2
    15    15    16    1
    16    16    17    1
    17    16    18    1
    18    18    13    2
    19    11    19    1
    20    19     8    1
    21    19    20    1
    22    20    21    1
    23    21    22    1
    24    22    23   ar
    25    23    24   ar
    26    24    25   ar
    27    25    26   ar
    28    26    27    1
    29    27    28   am
    30    28    29    2
    31    28    30    1
    32    30    31    1
    33    31    32    1
    34    31    33    1
    35    31    34    1
    36    26    35   ar
    37    35    22   ar
    38     6    36    1
    39    36     2    2
    40     1    37    1
    41     1    38    1
    42     1    39    1
    43     3    40    1
    44     5    41    1
    45     5    42    1
    46     5    43    1
    47     7    44    1
    48     7    45    1
    49    12    46    1
    50    14    47    1
    51    15    48    1
    52    17    49    1
    53    17    50    1
    54    17    51    1
    55    20    52    1
    56    20    53    1
    57    21    54    1
    58    21    55    1
    59    23    56    1
    60    24    57    1
    61    25    58    1
    62    27    59    1
    63    32    60    1
    64    32    61    1
    65    32    62    1
    66    33    63    1
    67    33    64    1
    68    33    65    1
    69    34    66    1
    70    34    67    1
    71    34    68    1
    72    35    69    1
