@<TRIPOS>MOLECULE

  45   48
SMALL
USER_CHARGES
@<TRIPOS>ATOM
   1 O1           0.4727     0.4727    -1.2825 O.3          1    LIG   0.0000
   2 C2           1.2925     1.2925    -0.4626 C.3          1    LIG   0.0000
   3 C3           1.0000     1.0000     1.0000 C.3          1    LIG   0.0000
   4 C4           1.8776     1.8776     1.8776 C.3          1    LIG   0.0000
   5 C5           1.5851     1.5851     3.3401 C.2          1    LIG   0.0000
   6 N6           0.6778     0.6812     3.8012 N.2          1    LIG   0.0000
   7 C7           0.7228     0.7376     5.1154 C.2          1    LIG   0.0000
   8 N8           1.6601     1.6517     5.4676 N.pl3        1    LIG   0.0000
   9 N9           2.1631     2.1631     4.3638 N.2          1    LIG   0.0000
  10 C10          1.9636     1.9312     6.8802 C.3          1    LIG   0.0000
  11 C11          1.1081     3.0718     7.4075 C.ar         1    LIG   0.0000
  12 C12          1.5711     4.3797     7.3062 C.ar         1    LIG   0.0000
  13 C13          0.7819     5.4176     7.7913 C.ar         1    LIG   0.0000
  14 C14         -0.4557     5.1613     8.3722 C.ar         1    LIG   0.0000
  15 C15         -0.8981     3.8455     8.4628 C.ar         1    LIG   0.0000
  16 Cl16        -2.4791     3.5006     9.2044 Cl           1    LIG   0.0000
  17 C17         -0.1262     2.7921     7.9846 C.ar         1    LIG   0.0000
  18 C18          1.7459     0.6588     7.6853 C.3          1    LIG   0.0000
  19 C19          0.4368    -0.0229     7.3153 C.2          1    LIG   0.0000
  20 C20         -0.2837    -0.7493     8.3428 C.ar         1    LIG   0.0000
  21 C21         -1.4808    -1.3838     8.0268 C.ar         1    LIG   0.0000
  22 C22         -2.1678    -2.0786     9.0169 C.ar         1    LIG   0.0000
  23 C23         -1.6528    -2.1310    10.3078 C.ar         1    LIG   0.0000
  24 Br24        -2.6262    -3.1108    11.6984 Br           1    LIG   0.0000
  25 C25         -0.4564    -1.4975    10.6267 C.ar         1    LIG   0.0000
  26 C26          0.2288    -0.8032     9.6354 C.ar         1    LIG   0.0000
  27 N27          0.0136     0.0600     6.1177 N.2          1    LIG   0.0000
  28 H            2.9257     2.1940     6.9535 H            1    LIG   0.0000
  29 H            0.6651     0.6651    -2.2447 H            1    LIG   0.0000
  30 H            1.1001     2.2548    -0.6551 H            1    LIG   0.0000
  31 H            2.2548     1.1001    -0.6551 H            1    LIG   0.0000
  32 H            1.1925     0.0377     1.1925 H            1    LIG   0.0000
  33 H            0.0377     1.1925     1.1925 H            1    LIG   0.0000
  34 H            2.8398     1.6851     1.6851 H            1    LIG   0.0000
  35 H            1.6851     2.8398     1.6851 H            1    LIG   0.0000
  36 H            2.4599     4.5714     6.8899 H            1    LIG   0.0000
  37 H            1.1086     6.3602     7.7214 H            1    LIG   0.0000
  38 H           -1.0187     5.9113     8.7193 H            1    LIG   0.0000
  39 H           -0.4530     1.8496     8.0544 H            1    LIG   0.0000
  40 H            2.5015     0.0286     7.5064 H            1    LIG   0.0000
  41 H            1.7276     0.8897     8.6581 H            1    LIG   0.0000
  42 H           -1.8442    -1.3407     7.0962 H            1    LIG   0.0000
  43 H           -3.0290    -2.5387     8.8012 H            1    LIG   0.0000
  44 H           -0.0934    -1.5407    11.5575 H            1    LIG   0.0000
  45 H            1.0898    -0.3427     9.8515 H            1    LIG   0.0000
@<TRIPOS>BOND
   1        1        2 1
   2        2        3 1
   3        3        4 1
   4        4        5 1
   5        5        6 1
   6        6        7 2
   7        7        8 1
   8        8        9 1
   9        9        5 2
  10        8       10 1
  11       10       11 1
  12       11       12 ar
  13       12       13 ar
  14       13       14 ar
  15       14       15 ar
  16       15       16 1
  17       15       17 ar
  18       17       11 ar
  19       10       18 1
  20       18       19 1
  21       19       20 1
  22       20       21 ar
  23       21       22 ar
  24       22       23 ar
  25       23       24 1
  26       23       25 ar
  27       25       26 ar
  28       26       20 ar
  29       19       27 2
  30       27        7 1
  31       10       28 1
  32        1       29 1
  33        2       30 1
  34        2       31 1
  35        3       32 1
  36        3       33 1
  37        4       34 1
  38        4       35 1
  39       12       36 1
  40       13       37 1
  41       14       38 1
  42       17       39 1
  43       18       40 1
  44       18       41 1
  45       21       42 1
  46       22       43 1
  47       25       44 1
  48       26       45 1

@<TRIPOS>MOLECULE

  45   48
SMALL
USER_CHARGES
@<TRIPOS>ATOM
   1 O1           0.4727     0.4727    -1.2825 O.3          1    LIG   0.0000
   2 C2           1.2925     1.2925    -0.4626 C.3          1    LIG   0.0000
   3 C3           1.0000     1.0000     1.0000 C.3          1    LIG   0.0000
   4 C4           1.8776     1.8776     1.8776 C.3          1    LIG   0.0000
   5 C5           1.5851     1.5851     3.3401 C.2          1    LIG   0.0000
   6 N6           0.6778     0.6812     3.8012 N.2          1    LIG   0.0000
   7 C7           0.7228     0.7376     5.1154 C.2          1    LIG   0.0000
   8 N8           1.6601     1.6517     5.4676 N.pl3        1    LIG   0.0000
   9 N9           2.1631     2.1631     4.3638 N.2          1    LIG   0.0000
  10 C10          1.9636     1.9312     6.8802 C.3          1    LIG   0.0000
  11 C11          1.1081     3.0718     7.4075 C.ar         1    LIG   0.0000
  12 C12         -0.1265     2.7928     7.9846 C.ar         1    LIG   0.0000
  13 C13         -0.9030     3.8425     8.4647 C.ar         1    LIG   0.0000
  14 C14         -0.4597     5.1577     8.3734 C.ar         1    LIG   0.0000
  15 C15          0.7782     5.4129     7.7924 C.ar         1    LIG   0.0000
  16 Cl16         1.3596     7.0905     7.6670 Cl           1    LIG   0.0000
  17 C17          1.5716     4.3794     7.3057 C.ar         1    LIG   0.0000
  18 C18          1.7459     0.6588     7.6853 C.3          1    LIG   0.0000
  19 C19          0.4368    -0.0229     7.3153 C.2          1    LIG   0.0000
  20 C20         -0.2837    -0.7493     8.3428 C.ar         1    LIG   0.0000
  21 C21         -1.4808    -1.3838     8.0268 C.ar         1    LIG   0.0000
  22 C22         -2.1678    -2.0786     9.0169 C.ar         1    LIG   0.0000
  23 C23         -1.6528    -2.1310    10.3078 C.ar         1    LIG   0.0000
  24 Br24        -2.6262    -3.1108    11.6984 Br           1    LIG   0.0000
  25 C25         -0.4564    -1.4975    10.6267 C.ar         1    LIG   0.0000
  26 C26          0.2288    -0.8032     9.6354 C.ar         1    LIG   0.0000
  27 N27          0.0136     0.0600     6.1177 N.2          1    LIG   0.0000
  28 H            2.9257     2.1940     6.9535 H            1    LIG   0.0000
  29 H            0.6651     0.6651    -2.2447 H            1    LIG   0.0000
  30 H            1.1001     2.2548    -0.6551 H            1    LIG   0.0000
  31 H            2.2548     1.1001    -0.6551 H            1    LIG   0.0000
  32 H            1.1925     0.0377     1.1925 H            1    LIG   0.0000
  33 H            0.0377     1.1925     1.1925 H            1    LIG   0.0000
  34 H            2.8398     1.6851     1.6851 H            1    LIG   0.0000
  35 H            1.6851     2.8398     1.6851 H            1    LIG   0.0000
  36 H           -0.4518     1.8496     8.0534 H            1    LIG   0.0000
  37 H           -1.7915     3.6489     8.8809 H            1    LIG   0.0000
  38 H           -1.0222     5.9083     8.7201 H            1    LIG   0.0000
  39 H            2.4601     4.5730     6.8897 H            1    LIG   0.0000
  40 H            2.5015     0.0286     7.5064 H            1    LIG   0.0000
  41 H            1.7276     0.8897     8.6581 H            1    LIG   0.0000
  42 H           -1.8442    -1.3407     7.0962 H            1    LIG   0.0000
  43 H           -3.0290    -2.5387     8.8012 H            1    LIG   0.0000
  44 H           -0.0934    -1.5407    11.5575 H            1    LIG   0.0000
  45 H            1.0898    -0.3427     9.8515 H            1    LIG   0.0000
@<TRIPOS>BOND
   1        1        2 1
   2        2        3 1
   3        3        4 1
   4        4        5 1
   5        5        6 1
   6        6        7 2
   7        7        8 1
   8        8        9 1
   9        9        5 2
  10        8       10 1
  11       10       11 1
  12       11       12 ar
  13       12       13 ar
  14       13       14 ar
  15       14       15 ar
  16       15       16 1
  17       15       17 ar
  18       17       11 ar
  19       10       18 1
  20       18       19 1
  21       19       20 1
  22       20       21 ar
  23       21       22 ar
  24       22       23 ar
  25       23       24 1
  26       23       25 ar
  27       25       26 ar
  28       26       20 ar
  29       19       27 2
  30       27        7 1
  31       10       28 1
  32        1       29 1
  33        2       30 1
  34        2       31 1
  35        3       32 1
  36        3       33 1
  37        4       34 1
  38        4       35 1
  39       12       36 1
  40       13       37 1
  41       14       38 1
  42       17       39 1
  43       18       40 1
  44       18       41 1
  45       21       42 1
  46       22       43 1
  47       25       44 1
  48       26       45 1

@<TRIPOS>MOLECULE

  45   48
SMALL
USER_CHARGES
@<TRIPOS>ATOM
   1 O1           0.4727     0.4727    -1.2825 O.3          1    LIG   0.0000
   2 C2           1.2925     1.2925    -0.4626 C.3          1    LIG   0.0000
   3 C3           1.0000     1.0000     1.0000 C.3          1    LIG   0.0000
   4 C4           1.8776     1.8776     1.8776 C.3          1    LIG   0.0000
   5 C5           1.5851     1.5851     3.3401 C.2          1    LIG   0.0000
   6 N6           2.2136     0.6483     4.1017 N.2          1    LIG   0.0000
   7 C7           1.6669     0.7050     5.2977 C.2          1    LIG   0.0000
   8 N8           0.7228     1.6780     5.2853 N.pl3        1    LIG   0.0000
   9 N9           0.6851     2.1915     4.0739 N.2          1    LIG   0.0000
  10 C10         -0.0580     2.0019     6.4900 C.3          1    LIG   0.0000
  11 C11         -1.3442     1.1931     6.5413 C.ar         1    LIG   0.0000
  12 C12         -2.4989     1.7035     5.9569 C.ar         1    LIG   0.0000
  13 C13         -3.6715     0.9568     6.0084 C.ar         1    LIG   0.0000
  14 C14         -3.6996    -0.2852     6.6341 C.ar         1    LIG   0.0000
  15 C15         -2.5328    -0.7754     7.2117 C.ar         1    LIG   0.0000
  16 Cl16        -2.5523    -2.3626     8.0171 Cl           1    LIG   0.0000
  17 C17         -1.3490    -0.0465     7.1723 C.ar         1    LIG   0.0000
  18 C18          0.8072     1.7430     7.7144 C.3          1    LIG   0.0000
  19 C19          1.5291     0.4069     7.6198 C.2          1    LIG   0.0000
  20 C20          1.7864    -0.3325     8.8402 C.ar         1    LIG   0.0000
  21 C21          2.4485    -1.5546     8.7785 C.ar         1    LIG   0.0000
  22 C22          2.6920    -2.2596     9.9526 C.ar         1    LIG   0.0000
  23 C23          2.2721    -1.7375    11.1715 C.ar         1    LIG   0.0000
  24 Br24         2.6174    -2.7364    12.8220 Br           1    LIG   0.0000
  25 C25          1.6098    -0.5162    11.2362 C.ar         1    LIG   0.0000
  26 C26          1.3671     0.1871    10.0611 C.ar         1    LIG   0.0000
  27 N27          1.8889    -0.0216     6.4765 N.2          1    LIG   0.0000
  28 H           -0.2933     2.9735     6.4656 H            1    LIG   0.0000
  29 H            0.6651     0.6651    -2.2447 H            1    LIG   0.0000
  30 H            1.1001     2.2548    -0.6551 H            1    LIG   0.0000
  31 H            2.2548     1.1001    -0.6551 H            1    LIG   0.0000
  32 H            1.1925     0.0377     1.1925 H            1    LIG   0.0000
  33 H            0.0377     1.1925     1.1925 H            1    LIG   0.0000
  34 H            2.8398     1.6851     1.6851 H            1    LIG   0.0000
  35 H            1.6851     2.8398     1.6851 H            1    LIG   0.0000
  36 H           -2.4861     2.5957     5.5056 H            1    LIG   0.0000
  37 H           -4.5051     1.3176     5.5902 H            1    LIG   0.0000
  38 H           -4.5454    -0.8175     6.6682 H            1    LIG   0.0000
  39 H           -0.5154    -0.4075     7.5905 H            1    LIG   0.0000
  40 H            1.4857     2.4734     7.7922 H            1    LIG   0.0000
  41 H            0.2255     1.7404     8.5278 H            1    LIG   0.0000
  42 H            2.7466    -1.9228     7.8979 H            1    LIG   0.0000
  43 H            3.1673    -3.1388     9.9205 H            1    LIG   0.0000
  44 H            1.3117    -0.1482    12.1170 H            1    LIG   0.0000
  45 H            0.8914     1.0661    10.0936 H            1    LIG   0.0000
@<TRIPOS>BOND
   1        1        2 1
   2        2        3 1
   3        3        4 1
   4        4        5 1
   5        5        6 1
   6        6        7 2
   7        7        8 1
   8        8        9 1
   9        9        5 2
  10        8       10 1
  11       10       11 1
  12       11       12 ar
  13       12       13 ar
  14       13       14 ar
  15       14       15 ar
  16       15       16 1
  17       15       17 ar
  18       17       11 ar
  19       10       18 1
  20       18       19 1
  21       19       20 1
  22       20       21 ar
  23       21       22 ar
  24       22       23 ar
  25       23       24 1
  26       23       25 ar
  27       25       26 ar
  28       26       20 ar
  29       19       27 2
  30       27        7 1
  31       10       28 1
  32        1       29 1
  33        2       30 1
  34        2       31 1
  35        3       32 1
  36        3       33 1
  37        4       34 1
  38        4       35 1
  39       12       36 1
  40       13       37 1
  41       14       38 1
  42       17       39 1
  43       18       40 1
  44       18       41 1
  45       21       42 1
  46       22       43 1
  47       25       44 1
  48       26       45 1

@<TRIPOS>MOLECULE

  45   48
SMALL
USER_CHARGES
@<TRIPOS>ATOM
   1 O1           0.4727     0.4727    -1.2825 O.3          1    LIG   0.0000
   2 C2           1.2925     1.2925    -0.4626 C.3          1    LIG   0.0000
   3 C3           1.0000     1.0000     1.0000 C.3          1    LIG   0.0000
   4 C4           1.8776     1.8776     1.8776 C.3          1    LIG   0.0000
   5 C5           1.5851     1.5851     3.3401 C.2          1    LIG   0.0000
   6 N6           2.2136     0.6483     4.1017 N.2          1    LIG   0.0000
   7 C7           1.6669     0.7050     5.2977 C.2          1    LIG   0.0000
   8 N8           0.7228     1.6780     5.2853 N.pl3        1    LIG   0.0000
   9 N9           0.6851     2.1915     4.0739 N.2          1    LIG   0.0000
  10 C10         -0.0580     2.0019     6.4900 C.3          1    LIG   0.0000
  11 C11         -1.3442     1.1931     6.5413 C.ar         1    LIG   0.0000
  12 C12         -1.3496    -0.0469     7.1721 C.ar         1    LIG   0.0000
  13 C13         -2.5309    -0.7804     7.2146 C.ar         1    LIG   0.0000
  14 C14         -3.6969    -0.2894     6.6366 C.ar         1    LIG   0.0000
  15 C15         -3.6677     0.9529     6.0112 C.ar         1    LIG   0.0000
  16 Cl16        -5.1510     1.5951     5.2658 Cl           1    LIG   0.0000
  17 C17         -2.4983     1.7039     5.9566 C.ar         1    LIG   0.0000
  18 C18          0.8072     1.7430     7.7144 C.3          1    LIG   0.0000
  19 C19          1.5291     0.4069     7.6198 C.2          1    LIG   0.0000
  20 C20          1.7864    -0.3325     8.8402 C.ar         1    LIG   0.0000
  21 C21          2.4485    -1.5546     8.7785 C.ar         1    LIG   0.0000
  22 C22          2.6920    -2.2596     9.9526 C.ar         1    LIG   0.0000
  23 C23          2.2721    -1.7375    11.1715 C.ar         1    LIG   0.0000
  24 Br24         2.6174    -2.7364    12.8220 Br           1    LIG   0.0000
  25 C25          1.6098    -0.5162    11.2362 C.ar         1    LIG   0.0000
  26 C26          1.3671     0.1871    10.0611 C.ar         1    LIG   0.0000
  27 N27          1.8889    -0.0216     6.4765 N.2          1    LIG   0.0000
  28 H           -0.2933     2.9735     6.4656 H            1    LIG   0.0000
  29 H            0.6651     0.6651    -2.2447 H            1    LIG   0.0000
  30 H            1.1001     2.2548    -0.6551 H            1    LIG   0.0000
  31 H            2.2548     1.1001    -0.6551 H            1    LIG   0.0000
  32 H            1.1925     0.0377     1.1925 H            1    LIG   0.0000
  33 H            0.0377     1.1925     1.1925 H            1    LIG   0.0000
  34 H            2.8398     1.6851     1.6851 H            1    LIG   0.0000
  35 H            1.6851     2.8398     1.6851 H            1    LIG   0.0000
  36 H           -0.5151    -0.4063     7.5896 H            1    LIG   0.0000
  37 H           -2.5419    -1.6724     7.6666 H            1    LIG   0.0000
  38 H           -4.5431    -0.8211     6.6701 H            1    LIG   0.0000
  39 H           -2.4874     2.5959     5.5048 H            1    LIG   0.0000
  40 H            1.4857     2.4734     7.7922 H            1    LIG   0.0000
  41 H            0.2255     1.7404     8.5278 H            1    LIG   0.0000
  42 H            2.7466    -1.9228     7.8979 H            1    LIG   0.0000
  43 H            3.1673    -3.1388     9.9205 H            1    LIG   0.0000
  44 H            1.3117    -0.1482    12.1170 H            1    LIG   0.0000
  45 H            0.8914     1.0661    10.0936 H            1    LIG   0.0000
@<TRIPOS>BOND
   1        1        2 1
   2        2        3 1
   3        3        4 1
   4        4        5 1
   5        5        6 1
   6        6        7 2
   7        7        8 1
   8        8        9 1
   9        9        5 2
  10        8       10 1
  11       10       11 1
  12       11       12 ar
  13       12       13 ar
  14       13       14 ar
  15       14       15 ar
  16       15       16 1
  17       15       17 ar
  18       17       11 ar
  19       10       18 1
  20       18       19 1
  21       19       20 1
  22       20       21 ar
  23       21       22 ar
  24       22       23 ar
  25       23       24 1
  26       23       25 ar
  27       25       26 ar
  28       26       20 ar
  29       19       27 2
  30       27        7 1
  31       10       28 1
  32        1       29 1
  33        2       30 1
  34        2       31 1
  35        3       32 1
  36        3       33 1
  37        4       34 1
  38        4       35 1
  39       12       36 1
  40       13       37 1
  41       14       38 1
  42       17       39 1
  43       18       40 1
  44       18       41 1
  45       21       42 1
  46       22       43 1
  47       25       44 1
  48       26       45 1

@<TRIPOS>MOLECULE

  45   48
SMALL
USER_CHARGES
@<TRIPOS>ATOM
   1 O1           0.4727     0.4727    -1.2825 O.3          1    LIG   0.0000
   2 C2           1.2925     1.2925    -0.4626 C.3          1    LIG   0.0000
   3 C3           1.0000     1.0000     1.0000 C.3          1    LIG   0.0000
   4 C4           1.8776     1.8776     1.8776 C.3          1    LIG   0.0000
   5 C5           1.5850     1.5850     3.3402 C.2          1    LIG   0.0000
   6 N6           0.6776     0.6783     3.7982 N.2          1    LIG   0.0000
   7 C7           0.7395     0.7300     5.1162 C.2          1    LIG   0.0000
   8 N8           1.6605     1.6586     5.4627 N.pl3        1    LIG   0.0000
   9 N9           2.1675     2.1675     4.3612 N.2          1    LIG   0.0000
  10 C10          1.9539     1.9565     6.8729 C.3          1    LIG   0.0000
  11 C11          2.4577     3.3788     7.0577 C.ar         1    LIG   0.0000
  12 C12          3.8227     3.6375     6.9854 C.ar         1    LIG   0.0000
  13 C13          4.2752     4.9419     7.1556 C.ar         1    LIG   0.0000
  14 C14          3.3825     5.9812     7.3957 C.ar         1    LIG   0.0000
  15 C15          2.0220     5.6988     7.4640 C.ar         1    LIG   0.0000
  16 Cl16         0.8666     7.0174     7.7715 Cl           1    LIG   0.0000
  17 C17          1.5468     4.4025     7.2968 C.ar         1    LIG   0.0000
  18 C18          0.7013     1.8124     7.7222 C.3          1    LIG   0.0000
  19 C19          0.0142     0.5106     7.3408 C.2          1    LIG   0.0000
  20 C20         -0.7080    -0.1826     8.3898 C.ar         1    LIG   0.0000
  21 C21         -1.3631    -1.3758     8.1023 C.ar         1    LIG   0.0000
  22 C22         -2.0548    -2.0359     9.1126 C.ar         1    LIG   0.0000
  23 C23         -2.0845    -1.4978    10.3948 C.ar         1    LIG   0.0000
  24 Br24        -3.0616    -2.4324    11.8136 Br           1    LIG   0.0000
  25 C25         -1.4307    -0.3051    10.6851 C.ar         1    LIG   0.0000
  26 C26         -0.7399     0.3536     9.6735 C.ar         1    LIG   0.0000
  27 N27          0.0699     0.0585     6.1502 N.2          1    LIG   0.0000
  28 H            2.6486     1.3180     7.2042 H            1    LIG   0.0000
  29 H            0.6651     0.6651    -2.2447 H            1    LIG   0.0000
  30 H            1.1001     2.2548    -0.6551 H            1    LIG   0.0000
  31 H            2.2548     1.1001    -0.6551 H            1    LIG   0.0000
  32 H            1.1925     0.0377     1.1925 H            1    LIG   0.0000
  33 H            0.0377     1.1925     1.1925 H            1    LIG   0.0000
  34 H            2.8398     1.6851     1.6851 H            1    LIG   0.0000
  35 H            1.6851     2.8398     1.6851 H            1    LIG   0.0000
  36 H            4.4703     2.8953     6.8133 H            1    LIG   0.0000
  37 H            5.2551     5.1350     7.1047 H            1    LIG   0.0000
  38 H            3.7135     6.9170     7.5175 H            1    LIG   0.0000
  39 H            0.5669     4.2096     7.3476 H            1    LIG   0.0000
  40 H            0.9496     1.7927     8.6906 H            1    LIG   0.0000
  41 H            0.0863     2.5822     7.5513 H            1    LIG   0.0000
  42 H           -1.3369    -1.7555     7.1776 H            1    LIG   0.0000
  43 H           -2.5290    -2.8944     8.9177 H            1    LIG   0.0000
  44 H           -1.4571     0.0744    11.6100 H            1    LIG   0.0000
  45 H           -0.2661     1.2123     9.8687 H            1    LIG   0.0000
@<TRIPOS>BOND
   1        1        2 1
   2        2        3 1
   3        3        4 1
   4        4        5 1
   5        5        6 1
   6        6        7 2
   7        7        8 1
   8        8        9 1
   9        9        5 2
  10        8       10 1
  11       10       11 1
  12       11       12 ar
  13       12       13 ar
  14       13       14 ar
  15       14       15 ar
  16       15       16 1
  17       15       17 ar
  18       17       11 ar
  19       10       18 1
  20       18       19 1
  21       19       20 1
  22       20       21 ar
  23       21       22 ar
  24       22       23 ar
  25       23       24 1
  26       23       25 ar
  27       25       26 ar
  28       26       20 ar
  29       19       27 2
  30       27        7 1
  31       10       28 1
  32        1       29 1
  33        2       30 1
  34        2       31 1
  35        3       32 1
  36        3       33 1
  37        4       34 1
  38        4       35 1
  39       12       36 1
  40       13       37 1
  41       14       38 1
  42       17       39 1
  43       18       40 1
  44       18       41 1
  45       21       42 1
  46       22       43 1
  47       25       44 1
  48       26       45 1

@<TRIPOS>MOLECULE

  45   48
SMALL
USER_CHARGES
@<TRIPOS>ATOM
   1 O1           0.4727     0.4727    -1.2825 O.3          1    LIG   0.0000
   2 C2           1.2925     1.2925    -0.4626 C.3          1    LIG   0.0000
   3 C3           1.0000     1.0000     1.0000 C.3          1    LIG   0.0000
   4 C4           1.8776     1.8776     1.8776 C.3          1    LIG   0.0000
   5 C5           1.5850     1.5850     3.3402 C.2          1    LIG   0.0000
   6 N6           0.6776     0.6783     3.7982 N.2          1    LIG   0.0000
   7 C7           0.7395     0.7300     5.1162 C.2          1    LIG   0.0000
   8 N8           1.6605     1.6586     5.4627 N.pl3        1    LIG   0.0000
   9 N9           2.1675     2.1675     4.3612 N.2          1    LIG   0.0000
  10 C10          1.9539     1.9565     6.8729 C.3          1    LIG   0.0000
  11 C11          2.4577     3.3788     7.0577 C.ar         1    LIG   0.0000
  12 C12          1.5472     4.4031     7.2967 C.ar         1    LIG   0.0000
  13 C13          2.0167     5.7018     7.4647 C.ar         1    LIG   0.0000
  14 C14          3.3773     5.9830     7.3961 C.ar         1    LIG   0.0000
  15 C15          4.2692     4.9428     7.1561 C.ar         1    LIG   0.0000
  16 Cl16         6.0133     5.2861     7.0644 Cl           1    LIG   0.0000
  17 C17          3.8226     3.6368     6.9851 C.ar         1    LIG   0.0000
  18 C18          0.7013     1.8124     7.7222 C.3          1    LIG   0.0000
  19 C19          0.0142     0.5106     7.3408 C.2          1    LIG   0.0000
  20 C20         -0.7080    -0.1826     8.3898 C.ar         1    LIG   0.0000
  21 C21         -1.3631    -1.3758     8.1023 C.ar         1    LIG   0.0000
  22 C22         -2.0548    -2.0359     9.1126 C.ar         1    LIG   0.0000
  23 C23         -2.0845    -1.4978    10.3948 C.ar         1    LIG   0.0000
  24 Br24        -3.0616    -2.4324    11.8136 Br           1    LIG   0.0000
  25 C25         -1.4307    -0.3051    10.6851 C.ar         1    LIG   0.0000
  26 C26         -0.7399     0.3536     9.6735 C.ar         1    LIG   0.0000
  27 N27          0.0699     0.0585     6.1502 N.2          1    LIG   0.0000
  28 H            2.6486     1.3180     7.2042 H            1    LIG   0.0000
  29 H            0.6651     0.6651    -2.2447 H            1    LIG   0.0000
  30 H            1.1001     2.2548    -0.6551 H            1    LIG   0.0000
  31 H            2.2548     1.1001    -0.6551 H            1    LIG   0.0000
  32 H            1.1925     0.0377     1.1925 H            1    LIG   0.0000
  33 H            0.0377     1.1925     1.1925 H            1    LIG   0.0000
  34 H            2.8398     1.6851     1.6851 H            1    LIG   0.0000
  35 H            1.6851     2.8398     1.6851 H            1    LIG   0.0000
  36 H            0.5676     4.2083     7.3470 H            1    LIG   0.0000
  37 H            1.3677     6.4428     7.6370 H            1    LIG   0.0000
  38 H            3.7091     6.9185     7.5175 H            1    LIG   0.0000
  39 H            4.4717     2.8959     6.8130 H            1    LIG   0.0000
  40 H            0.9496     1.7927     8.6906 H            1    LIG   0.0000
  41 H            0.0863     2.5822     7.5513 H            1    LIG   0.0000
  42 H           -1.3369    -1.7555     7.1776 H            1    LIG   0.0000
  43 H           -2.5290    -2.8944     8.9177 H            1    LIG   0.0000
  44 H           -1.4571     0.0744    11.6100 H            1    LIG   0.0000
  45 H           -0.2661     1.2123     9.8687 H            1    LIG   0.0000
@<TRIPOS>BOND
   1        1        2 1
   2        2        3 1
   3        3        4 1
   4        4        5 1
   5        5        6 1
   6        6        7 2
   7        7        8 1
   8        8        9 1
   9        9        5 2
  10        8       10 1
  11       10       11 1
  12       11       12 ar
  13       12       13 ar
  14       13       14 ar
  15       14       15 ar
  16       15       16 1
  17       15       17 ar
  18       17       11 ar
  19       10       18 1
  20       18       19 1
  21       19       20 1
  22       20       21 ar
  23       21       22 ar
  24       22       23 ar
  25       23       24 1
  26       23       25 ar
  27       25       26 ar
  28       26       20 ar
  29       19       27 2
  30       27        7 1
  31       10       28 1
  32        1       29 1
  33        2       30 1
  34        2       31 1
  35        3       32 1
  36        3       33 1
  37        4       34 1
  38        4       35 1
  39       12       36 1
  40       13       37 1
  41       14       38 1
  42       17       39 1
  43       18       40 1
  44       18       41 1
  45       21       42 1
  46       22       43 1
  47       25       44 1
  48       26       45 1

@<TRIPOS>MOLECULE

  45   48
SMALL
USER_CHARGES
@<TRIPOS>ATOM
   1 O1           0.4727     0.4727    -1.2825 O.3          1    LIG   0.0000
   2 C2           1.2925     1.2925    -0.4626 C.3          1    LIG   0.0000
   3 C3           1.0000     1.0000     1.0000 C.3          1    LIG   0.0000
   4 C4           1.8776     1.8776     1.8776 C.3          1    LIG   0.0000
   5 C5           1.5850     1.5850     3.3402 C.2          1    LIG   0.0000
   6 N6           2.2174     0.6480     4.1001 N.2          1    LIG   0.0000
   7 C7           1.6741     0.7214     5.3014 C.2          1    LIG   0.0000
   8 N8           0.7183     1.6786     5.2783 N.pl3        1    LIG   0.0000
   9 N9           0.6822     2.1961     4.0699 N.2          1    LIG   0.0000
  10 C10         -0.0790     1.9930     6.4736 C.3          1    LIG   0.0000
  11 C11         -1.4461     2.5505     6.1113 C.ar         1    LIG   0.0000
  12 C12         -1.6076     3.9236     5.9566 C.ar         1    LIG   0.0000
  13 C13         -2.8620     4.4254     5.6249 C.ar         1    LIG   0.0000
  14 C14         -3.9473     3.5735     5.4482 C.ar         1    LIG   0.0000
  15 C15         -3.7622     2.2040     5.6081 C.ar         1    LIG   0.0000
  16 Cl16        -5.1411     1.1005     5.3866 Cl           1    LIG   0.0000
  17 C17         -2.5172     1.6799     5.9395 C.ar         1    LIG   0.0000
  18 C18         -0.3128     0.7422     7.3053 C.3          1    LIG   0.0000
  19 C19          1.0102     0.0046     7.4388 C.2          1    LIG   0.0000
  20 C20          1.2286    -0.7351     8.6666 C.ar         1    LIG   0.0000
  21 C21          2.4169    -1.4360     8.8463 C.ar         1    LIG   0.0000
  22 C22          2.6205    -2.1443    10.0260 C.ar         1    LIG   0.0000
  23 C23          1.6374    -2.1448    11.0098 C.ar         1    LIG   0.0000
  24 Br24         1.9301    -3.1456    12.6693 Br           1    LIG   0.0000
  25 C25          0.4484    -1.4452    10.8329 C.ar         1    LIG   0.0000
  26 C26          0.2467    -0.7378     9.6525 C.ar         1    LIG   0.0000
  27 N27          1.8801     0.0348     6.5075 N.2          1    LIG   0.0000
  28 H            0.4123     2.6660     7.0265 H            1    LIG   0.0000
  29 H            0.6651     0.6651    -2.2447 H            1    LIG   0.0000
  30 H            1.1001     2.2548    -0.6551 H            1    LIG   0.0000
  31 H            2.2548     1.1001    -0.6551 H            1    LIG   0.0000
  32 H            1.1925     0.0377     1.1925 H            1    LIG   0.0000
  33 H            0.0377     1.1925     1.1925 H            1    LIG   0.0000
  34 H            2.8398     1.6851     1.6851 H            1    LIG   0.0000
  35 H            1.6851     2.8398     1.6851 H            1    LIG   0.0000
  36 H           -0.8319     4.5420     6.0822 H            1    LIG   0.0000
  37 H           -2.9850     5.4113     5.5119 H            1    LIG   0.0000
  38 H           -4.8468     3.9398     5.2100 H            1    LIG   0.0000
  39 H           -2.3943     0.6939     6.0523 H            1    LIG   0.0000
  40 H           -0.6511     0.9966     8.2113 H            1    LIG   0.0000
  41 H           -0.9833     0.1549     6.8519 H            1    LIG   0.0000
  42 H            3.1184    -1.4307     8.1336 H            1    LIG   0.0000
  43 H            3.4709    -2.6515    10.1663 H            1    LIG   0.0000
  44 H           -0.2529    -1.4508    11.5458 H            1    LIG   0.0000
  45 H           -0.6040    -0.2311     9.5124 H            1    LIG   0.0000
@<TRIPOS>BOND
   1        1        2 1
   2        2        3 1
   3        3        4 1
   4        4        5 1
   5        5        6 1
   6        6        7 2
   7        7        8 1
   8        8        9 1
   9        9        5 2
  10        8       10 1
  11       10       11 1
  12       11       12 ar
  13       12       13 ar
  14       13       14 ar
  15       14       15 ar
  16       15       16 1
  17       15       17 ar
  18       17       11 ar
  19       10       18 1
  20       18       19 1
  21       19       20 1
  22       20       21 ar
  23       21       22 ar
  24       22       23 ar
  25       23       24 1
  26       23       25 ar
  27       25       26 ar
  28       26       20 ar
  29       19       27 2
  30       27        7 1
  31       10       28 1
  32        1       29 1
  33        2       30 1
  34        2       31 1
  35        3       32 1
  36        3       33 1
  37        4       34 1
  38        4       35 1
  39       12       36 1
  40       13       37 1
  41       14       38 1
  42       17       39 1
  43       18       40 1
  44       18       41 1
  45       21       42 1
  46       22       43 1
  47       25       44 1
  48       26       45 1

@<TRIPOS>MOLECULE

  45   48
SMALL
USER_CHARGES
@<TRIPOS>ATOM
   1 O1           0.4727     0.4727    -1.2825 O.3          1    LIG   0.0000
   2 C2           1.2925     1.2925    -0.4626 C.3          1    LIG   0.0000
   3 C3           1.0000     1.0000     1.0000 C.3          1    LIG   0.0000
   4 C4           1.8776     1.8776     1.8776 C.3          1    LIG   0.0000
   5 C5           1.5850     1.5850     3.3402 C.2          1    LIG   0.0000
   6 N6           2.2174     0.6480     4.1001 N.2          1    LIG   0.0000
   7 C7           1.6741     0.7214     5.3014 C.2          1    LIG   0.0000
   8 N8           0.7183     1.6786     5.2783 N.pl3        1    LIG   0.0000
   9 N9           0.6822     2.1961     4.0699 N.2          1    LIG   0.0000
  10 C10         -0.0790     1.9930     6.4736 C.3          1    LIG   0.0000
  11 C11         -1.4461     2.5505     6.1113 C.ar         1    LIG   0.0000
  12 C12         -2.5178     1.6803     5.9391 C.ar         1    LIG   0.0000
  13 C13         -3.7654     2.1989     5.6077 C.ar         1    LIG   0.0000
  14 C14         -3.9493     3.5683     5.4479 C.ar         1    LIG   0.0000
  15 C15         -2.8632     4.4194     5.6249 C.ar         1    LIG   0.0000
  16 Cl16        -3.0816     6.1743     5.4231 Cl           1    LIG   0.0000
  17 C17         -1.6068     3.9235     5.9566 C.ar         1    LIG   0.0000
  18 C18         -0.3128     0.7422     7.3053 C.3          1    LIG   0.0000
  19 C19          1.0102     0.0046     7.4388 C.2          1    LIG   0.0000
  20 C20          1.2286    -0.7351     8.6666 C.ar         1    LIG   0.0000
  21 C21          2.4169    -1.4360     8.8463 C.ar         1    LIG   0.0000
  22 C22          2.6205    -2.1443    10.0260 C.ar         1    LIG   0.0000
  23 C23          1.6374    -2.1448    11.0098 C.ar         1    LIG   0.0000
  24 Br24         1.9301    -3.1456    12.6693 Br           1    LIG   0.0000
  25 C25          0.4484    -1.4452    10.8329 C.ar         1    LIG   0.0000
  26 C26          0.2467    -0.7378     9.6525 C.ar         1    LIG   0.0000
  27 N27          1.8801     0.0348     6.5075 N.2          1    LIG   0.0000
  28 H            0.4123     2.6660     7.0265 H            1    LIG   0.0000
  29 H            0.6651     0.6651    -2.2447 H            1    LIG   0.0000
  30 H            1.1001     2.2548    -0.6551 H            1    LIG   0.0000
  31 H            2.2548     1.1001    -0.6551 H            1    LIG   0.0000
  32 H            1.1925     0.0377     1.1925 H            1    LIG   0.0000
  33 H            0.0377     1.1925     1.1925 H            1    LIG   0.0000
  34 H            2.8398     1.6851     1.6851 H            1    LIG   0.0000
  35 H            1.6851     2.8398     1.6851 H            1    LIG   0.0000
  36 H           -2.3929     0.6946     6.0522 H            1    LIG   0.0000
  37 H           -4.5401     1.5790     5.4826 H            1    LIG   0.0000
  38 H           -4.8484     3.9355     5.2094 H            1    LIG   0.0000
  39 H           -0.8323     4.5435     6.0817 H            1    LIG   0.0000
  40 H           -0.6511     0.9966     8.2113 H            1    LIG   0.0000
  41 H           -0.9833     0.1549     6.8519 H            1    LIG   0.0000
  42 H            3.1184    -1.4307     8.1336 H            1    LIG   0.0000
  43 H            3.4709    -2.6515    10.1663 H            1    LIG   0.0000
  44 H           -0.2529    -1.4508    11.5458 H            1    LIG   0.0000
  45 H           -0.6040    -0.2311     9.5124 H            1    LIG   0.0000
@<TRIPOS>BOND
   1        1        2 1
   2        2        3 1
   3        3        4 1
   4        4        5 1
   5        5        6 1
   6        6        7 2
   7        7        8 1
   8        8        9 1
   9        9        5 2
  10        8       10 1
  11       10       11 1
  12       11       12 ar
  13       12       13 ar
  14       13       14 ar
  15       14       15 ar
  16       15       16 1
  17       15       17 ar
  18       17       11 ar
  19       10       18 1
  20       18       19 1
  21       19       20 1
  22       20       21 ar
  23       21       22 ar
  24       22       23 ar
  25       23       24 1
  26       23       25 ar
  27       25       26 ar
  28       26       20 ar
  29       19       27 2
  30       27        7 1
  31       10       28 1
  32        1       29 1
  33        2       30 1
  34        2       31 1
  35        3       32 1
  36        3       33 1
  37        4       34 1
  38        4       35 1
  39       12       36 1
  40       13       37 1
  41       14       38 1
  42       17       39 1
  43       18       40 1
  44       18       41 1
  45       21       42 1
  46       22       43 1
  47       25       44 1
  48       26       45 1

@<TRIPOS>MOLECULE

  45   48
SMALL
USER_CHARGES
@<TRIPOS>ATOM
   1 O1           0.4727     0.4727    -1.2825 O.3          1    LIG   0.0000
   2 C2           1.2925     1.2925    -0.4626 C.3          1    LIG   0.0000
   3 C3           1.0000     1.0000     1.0000 C.3          1    LIG   0.0000
   4 C4           1.8776     1.8776     1.8776 C.3          1    LIG   0.0000
   5 C5           1.1568     2.1701     3.1834 C.2          1    LIG   0.0000
   6 N6           0.2576     1.3500     3.7928 N.2          1    LIG   0.0000
   7 C7          -0.1377     1.9684     4.8854 C.2          1    LIG   0.0000
   8 N8           0.5218     3.1504     4.9643 N.pl3        1    LIG   0.0000
   9 N9           1.2973     3.2538     3.9058 N.2          1    LIG   0.0000
  10 C10          0.3113     4.0701     6.0937 C.3          1    LIG   0.0000
  11 C11         -0.7938     5.0680     5.7870 C.ar         1    LIG   0.0000
  12 C12         -0.4751     6.2792     5.1813 C.ar         1    LIG   0.0000
  13 C13         -1.4925     7.1867     4.9041 C.ar         1    LIG   0.0000
  14 C14         -2.8145     6.8963     5.2247 C.ar         1    LIG   0.0000
  15 C15         -3.1094     5.6790     5.8300 C.ar         1    LIG   0.0000
  16 Cl16        -4.7960     5.2926     6.2476 Cl           1    LIG   0.0000
  17 C17         -2.1088     4.7565     6.1164 C.ar         1    LIG   0.0000
  18 C18         -0.0123     3.2509     7.3342 C.3          1    LIG   0.0000
  19 C19         -1.0410     2.1689     7.0403 C.2          1    LIG   0.0000
  20 C20         -1.9711     1.7910     8.0865 C.ar         1    LIG   0.0000
  21 C21         -2.9179     0.8014     7.8419 C.ar         1    LIG   0.0000
  22 C22         -3.8079     0.4436     8.8493 C.ar         1    LIG   0.0000
  23 C23         -3.7424     1.0769    10.0858 C.ar         1    LIG   0.0000
  24 Br24        -4.9999     0.5687    11.5006 Br           1    LIG   0.0000
  25 C25         -2.7971     2.0666    10.3332 C.ar         1    LIG   0.0000
  26 C26         -1.9083     2.4232     9.3246 C.ar         1    LIG   0.0000
  27 N27         -1.0545     1.6250     5.8895 N.2          1    LIG   0.0000
  28 H            1.1595     4.5740     6.2568 H            1    LIG   0.0000
  29 H            0.6651     0.6651    -2.2447 H            1    LIG   0.0000
  30 H            1.1001     2.2548    -0.6551 H            1    LIG   0.0000
  31 H            2.2548     1.1001    -0.6551 H            1    LIG   0.0000
  32 H            1.1925     0.0377     1.1925 H            1    LIG   0.0000
  33 H            0.0377     1.1925     1.1925 H            1    LIG   0.0000
  34 H            2.7367     1.4034     2.0700 H            1    LIG   0.0000
  35 H            2.0700     2.7367     1.4034 H            1    LIG   0.0000
  36 H            0.4731     6.4948     4.9482 H            1    LIG   0.0000
  37 H           -1.2704     8.0591     4.4687 H            1    LIG   0.0000
  38 H           -3.5417     7.5525     5.0233 H            1    LIG   0.0000
  39 H           -2.3309     3.8840     6.5517 H            1    LIG   0.0000
  40 H            0.8267     2.8191     7.6656 H            1    LIG   0.0000
  41 H           -0.3748     3.8600     8.0396 H            1    LIG   0.0000
  42 H           -2.9583     0.3514     6.9498 H            1    LIG   0.0000
  43 H           -4.4925    -0.2666     8.6850 H            1    LIG   0.0000
  44 H           -2.7570     2.5165    11.2254 H            1    LIG   0.0000
  45 H           -1.2241     3.1337     9.4891 H            1    LIG   0.0000
@<TRIPOS>BOND
   1        1        2 1
   2        2        3 1
   3        3        4 1
   4        4        5 1
   5        5        6 1
   6        6        7 2
   7        7        8 1
   8        8        9 1
   9        9        5 2
  10        8       10 1
  11       10       11 1
  12       11       12 ar
  13       12       13 ar
  14       13       14 ar
  15       14       15 ar
  16       15       16 1
  17       15       17 ar
  18       17       11 ar
  19       10       18 1
  20       18       19 1
  21       19       20 1
  22       20       21 ar
  23       21       22 ar
  24       22       23 ar
  25       23       24 1
  26       23       25 ar
  27       25       26 ar
  28       26       20 ar
  29       19       27 2
  30       27        7 1
  31       10       28 1
  32        1       29 1
  33        2       30 1
  34        2       31 1
  35        3       32 1
  36        3       33 1
  37        4       34 1
  38        4       35 1
  39       12       36 1
  40       13       37 1
  41       14       38 1
  42       17       39 1
  43       18       40 1
  44       18       41 1
  45       21       42 1
  46       22       43 1
  47       25       44 1
  48       26       45 1

@<TRIPOS>MOLECULE

  45   48
SMALL
USER_CHARGES
@<TRIPOS>ATOM
   1 O1           0.4727     0.4727    -1.2825 O.3          1    LIG   0.0000
   2 C2           1.2925     1.2925    -0.4626 C.3          1    LIG   0.0000
   3 C3           1.0000     1.0000     1.0000 C.3          1    LIG   0.0000
   4 C4           1.8776     1.8776     1.8776 C.3          1    LIG   0.0000
   5 C5           1.1568     2.1701     3.1834 C.2          1    LIG   0.0000
   6 N6           0.2576     1.3500     3.7928 N.2          1    LIG   0.0000
   7 C7          -0.1377     1.9684     4.8854 C.2          1    LIG   0.0000
   8 N8           0.5218     3.1504     4.9643 N.pl3        1    LIG   0.0000
   9 N9           1.2973     3.2538     3.9058 N.2          1    LIG   0.0000
  10 C10          0.3113     4.0701     6.0937 C.3          1    LIG   0.0000
  11 C11         -0.7938     5.0680     5.7870 C.ar         1    LIG   0.0000
  12 C12         -2.1092     4.7570     6.1160 C.ar         1    LIG   0.0000
  13 C13         -3.1143     5.6759     5.8319 C.ar         1    LIG   0.0000
  14 C14         -2.8182     6.8927     5.2266 C.ar         1    LIG   0.0000
  15 C15         -1.4957     7.1821     4.9065 C.ar         1    LIG   0.0000
  16 Cl16        -1.1003     8.7345     4.1306 Cl           1    LIG   0.0000
  17 C17         -0.4745     6.2788     5.1812 C.ar         1    LIG   0.0000
  18 C18         -0.0123     3.2509     7.3342 C.3          1    LIG   0.0000
  19 C19         -1.0410     2.1689     7.0403 C.2          1    LIG   0.0000
  20 C20         -1.9711     1.7910     8.0865 C.ar         1    LIG   0.0000
  21 C21         -2.9179     0.8014     7.8419 C.ar         1    LIG   0.0000
  22 C22         -3.8079     0.4436     8.8493 C.ar         1    LIG   0.0000
  23 C23         -3.7424     1.0769    10.0858 C.ar         1    LIG   0.0000
  24 Br24        -4.9999     0.5687    11.5006 Br           1    LIG   0.0000
  25 C25         -2.7971     2.0666    10.3332 C.ar         1    LIG   0.0000
  26 C26         -1.9083     2.4232     9.3246 C.ar         1    LIG   0.0000
  27 N27         -1.0545     1.6250     5.8895 N.2          1    LIG   0.0000
  28 H            1.1595     4.5740     6.2568 H            1    LIG   0.0000
  29 H            0.6651     0.6651    -2.2447 H            1    LIG   0.0000
  30 H            1.1001     2.2548    -0.6551 H            1    LIG   0.0000
  31 H            2.2548     1.1001    -0.6551 H            1    LIG   0.0000
  32 H            1.1925     0.0377     1.1925 H            1    LIG   0.0000
  33 H            0.0377     1.1925     1.1925 H            1    LIG   0.0000
  34 H            2.7367     1.4034     2.0700 H            1    LIG   0.0000
  35 H            2.0700     2.7367     1.4034 H            1    LIG   0.0000
  36 H           -2.3295     3.8840     6.5512 H            1    LIG   0.0000
  37 H           -4.0620     5.4588     6.0660 H            1    LIG   0.0000
  38 H           -3.5449     7.5494     5.0246 H            1    LIG   0.0000
  39 H            0.4731     6.4960     4.9473 H            1    LIG   0.0000
  40 H            0.8267     2.8191     7.6656 H            1    LIG   0.0000
  41 H           -0.3748     3.8600     8.0396 H            1    LIG   0.0000
  42 H           -2.9583     0.3514     6.9498 H            1    LIG   0.0000
  43 H           -4.4925    -0.2666     8.6850 H            1    LIG   0.0000
  44 H           -2.7570     2.5165    11.2254 H            1    LIG   0.0000
  45 H           -1.2241     3.1337     9.4891 H            1    LIG   0.0000
@<TRIPOS>BOND
   1        1        2 1
   2        2        3 1
   3        3        4 1
   4        4        5 1
   5        5        6 1
   6        6        7 2
   7        7        8 1
   8        8        9 1
   9        9        5 2
  10        8       10 1
  11       10       11 1
  12       11       12 ar
  13       12       13 ar
  14       13       14 ar
  15       14       15 ar
  16       15       16 1
  17       15       17 ar
  18       17       11 ar
  19       10       18 1
  20       18       19 1
  21       19       20 1
  22       20       21 ar
  23       21       22 ar
  24       22       23 ar
  25       23       24 1
  26       23       25 ar
  27       25       26 ar
  28       26       20 ar
  29       19       27 2
  30       27        7 1
  31       10       28 1
  32        1       29 1
  33        2       30 1
  34        2       31 1
  35        3       32 1
  36        3       33 1
  37        4       34 1
  38        4       35 1
  39       12       36 1
  40       13       37 1
  41       14       38 1
  42       17       39 1
  43       18       40 1
  44       18       41 1
  45       21       42 1
  46       22       43 1
  47       25       44 1
  48       26       45 1

@<TRIPOS>MOLECULE

  45   48
SMALL
USER_CHARGES
@<TRIPOS>ATOM
   1 O1           0.4727     0.4727    -1.2825 O.3          1    LIG   0.0000
   2 C2           1.2925     1.2925    -0.4626 C.3          1    LIG   0.0000
   3 C3           1.0000     1.0000     1.0000 C.3          1    LIG   0.0000
   4 C4           1.8776     1.8776     1.8776 C.3          1    LIG   0.0000
   5 C5           1.1567     2.1701     3.1835 C.2          1    LIG   0.0000
   6 N6           0.2587     1.3461     3.7917 N.2          1    LIG   0.0000
   7 C7          -0.1215     1.9664     4.8937 C.2          1    LIG   0.0000
   8 N8           0.5230     3.1544     4.9570 N.pl3        1    LIG   0.0000
   9 N9           1.3018     3.2577     3.9025 N.2          1    LIG   0.0000
  10 C10          0.3016     4.0865     6.0731 C.3          1    LIG   0.0000
  11 C11          0.5517     5.5290     5.6635 C.ar         1    LIG   0.0000
  12 C12          1.8260     6.0697     5.8011 C.ar         1    LIG   0.0000
  13 C13          2.0462     7.3905     5.4238 C.ar         1    LIG   0.0000
  14 C14          1.0119     8.1690     4.9147 C.ar         1    LIG   0.0000
  15 C15         -0.2541     7.6071     4.7861 C.ar         1    LIG   0.0000
  16 Cl16        -1.5886     8.5901     4.1372 Cl           1    LIG   0.0000
  17 C17         -0.4975     6.2888     5.1567 C.ar         1    LIG   0.0000
  18 C18         -1.1353     4.0038     6.5626 C.3          1    LIG   0.0000
  19 C19         -1.5064     2.5361     6.7049 C.2          1    LIG   0.0000
  20 C20         -2.4489     2.1957     7.7529 C.ar         1    LIG   0.0000
  21 C21         -2.8332     0.8704     7.9297 C.ar         1    LIG   0.0000
  22 C22         -3.7381     0.5500     8.9363 C.ar         1    LIG   0.0000
  23 C23         -4.2478     1.5545     9.7522 C.ar         1    LIG   0.0000
  24 Br24        -5.5232     1.0965    11.1681 Br           1    LIG   0.0000
  25 C25         -3.8657     2.8803     9.5777 C.ar         1    LIG   0.0000
  26 C26         -2.9608     3.1986     8.5705 C.ar         1    LIG   0.0000
  27 N27         -1.0122     1.6518     5.9310 N.2          1    LIG   0.0000
  28 H            0.9171     3.8487     6.8245 H            1    LIG   0.0000
  29 H            0.6651     0.6651    -2.2447 H            1    LIG   0.0000
  30 H            1.1001     2.2548    -0.6551 H            1    LIG   0.0000
  31 H            2.2548     1.1001    -0.6551 H            1    LIG   0.0000
  32 H            1.1925     0.0377     1.1925 H            1    LIG   0.0000
  33 H            0.0377     1.1925     1.1925 H            1    LIG   0.0000
  34 H            2.7367     1.4034     2.0700 H            1    LIG   0.0000
  35 H            2.0700     2.7367     1.4034 H            1    LIG   0.0000
  36 H            2.5743     5.5161     6.1665 H            1    LIG   0.0000
  37 H            2.9598     7.7855     5.5199 H            1    LIG   0.0000
  38 H            1.1760     9.1179     4.6452 H            1    LIG   0.0000
  39 H           -1.4112     5.8939     5.0605 H            1    LIG   0.0000
  40 H           -1.2178     4.4610     7.4481 H            1    LIG   0.0000
  41 H           -1.7435     4.4440     5.9021 H            1    LIG   0.0000
  42 H           -2.4621     0.1544     7.3383 H            1    LIG   0.0000
  43 H           -4.0213    -0.3993     9.0729 H            1    LIG   0.0000
  44 H           -4.2369     3.5961    10.1692 H            1    LIG   0.0000
  45 H           -2.6782     4.1481     8.4339 H            1    LIG   0.0000
@<TRIPOS>BOND
   1        1        2 1
   2        2        3 1
   3        3        4 1
   4        4        5 1
   5        5        6 1
   6        6        7 2
   7        7        8 1
   8        8        9 1
   9        9        5 2
  10        8       10 1
  11       10       11 1
  12       11       12 ar
  13       12       13 ar
  14       13       14 ar
  15       14       15 ar
  16       15       16 1
  17       15       17 ar
  18       17       11 ar
  19       10       18 1
  20       18       19 1
  21       19       20 1
  22       20       21 ar
  23       21       22 ar
  24       22       23 ar
  25       23       24 1
  26       23       25 ar
  27       25       26 ar
  28       26       20 ar
  29       19       27 2
  30       27        7 1
  31       10       28 1
  32        1       29 1
  33        2       30 1
  34        2       31 1
  35        3       32 1
  36        3       33 1
  37        4       34 1
  38        4       35 1
  39       12       36 1
  40       13       37 1
  41       14       38 1
  42       17       39 1
  43       18       40 1
  44       18       41 1
  45       21       42 1
  46       22       43 1
  47       25       44 1
  48       26       45 1

@<TRIPOS>MOLECULE

  45   48
SMALL
USER_CHARGES
@<TRIPOS>ATOM
   1 O1           0.4727     0.4727    -1.2825 O.3          1    LIG   0.0000
   2 C2           1.2925     1.2925    -0.4626 C.3          1    LIG   0.0000
   3 C3           1.0000     1.0000     1.0000 C.3          1    LIG   0.0000
   4 C4           1.8776     1.8776     1.8776 C.3          1    LIG   0.0000
   5 C5           1.1567     2.1701     3.1835 C.2          1    LIG   0.0000
   6 N6           0.2587     1.3461     3.7917 N.2          1    LIG   0.0000
   7 C7          -0.1215     1.9664     4.8937 C.2          1    LIG   0.0000
   8 N8           0.5230     3.1544     4.9570 N.pl3        1    LIG   0.0000
   9 N9           1.3018     3.2577     3.9025 N.2          1    LIG   0.0000
  10 C10          0.3016     4.0865     6.0731 C.3          1    LIG   0.0000
  11 C11          0.5517     5.5290     5.6635 C.ar         1    LIG   0.0000
  12 C12         -0.4971     6.2894     5.1564 C.ar         1    LIG   0.0000
  13 C13         -0.2597     7.6086     4.7840 C.ar         1    LIG   0.0000
  14 C14          1.0067     8.1694     4.9129 C.ar         1    LIG   0.0000
  15 C15          2.0403     7.3900     5.4223 C.ar         1    LIG   0.0000
  16 Cl16         3.6669     8.0923     5.5926 Cl           1    LIG   0.0000
  17 C17          1.8261     6.0690     5.8012 C.ar         1    LIG   0.0000
  18 C18         -1.1353     4.0038     6.5626 C.3          1    LIG   0.0000
  19 C19         -1.5064     2.5361     6.7049 C.2          1    LIG   0.0000
  20 C20         -2.4489     2.1957     7.7529 C.ar         1    LIG   0.0000
  21 C21         -2.8332     0.8704     7.9297 C.ar         1    LIG   0.0000
  22 C22         -3.7381     0.5500     8.9363 C.ar         1    LIG   0.0000
  23 C23         -4.2478     1.5545     9.7522 C.ar         1    LIG   0.0000
  24 Br24        -5.5232     1.0965    11.1681 Br           1    LIG   0.0000
  25 C25         -3.8657     2.8803     9.5777 C.ar         1    LIG   0.0000
  26 C26         -2.9608     3.1986     8.5705 C.ar         1    LIG   0.0000
  27 N27         -1.0122     1.6518     5.9310 N.2          1    LIG   0.0000
  28 H            0.9171     3.8487     6.8245 H            1    LIG   0.0000
  29 H            0.6651     0.6651    -2.2447 H            1    LIG   0.0000
  30 H            1.1001     2.2548    -0.6551 H            1    LIG   0.0000
  31 H            2.2548     1.1001    -0.6551 H            1    LIG   0.0000
  32 H            1.1925     0.0377     1.1925 H            1    LIG   0.0000
  33 H            0.0377     1.1925     1.1925 H            1    LIG   0.0000
  34 H            2.7367     1.4034     2.0700 H            1    LIG   0.0000
  35 H            2.0700     2.7367     1.4034 H            1    LIG   0.0000
  36 H           -1.4101     5.8928     5.0608 H            1    LIG   0.0000
  37 H           -1.0091     8.1609     4.4190 H            1    LIG   0.0000
  38 H            1.1717     9.1182     4.6435 H            1    LIG   0.0000
  39 H            2.5756     5.5168     6.1663 H            1    LIG   0.0000
  40 H           -1.2178     4.4610     7.4481 H            1    LIG   0.0000
  41 H           -1.7435     4.4440     5.9021 H            1    LIG   0.0000
  42 H           -2.4621     0.1544     7.3383 H            1    LIG   0.0000
  43 H           -4.0213    -0.3993     9.0729 H            1    LIG   0.0000
  44 H           -4.2369     3.5961    10.1692 H            1    LIG   0.0000
  45 H           -2.6782     4.1481     8.4339 H            1    LIG   0.0000
@<TRIPOS>BOND
   1        1        2 1
   2        2        3 1
   3        3        4 1
   4        4        5 1
   5        5        6 1
   6        6        7 2
   7        7        8 1
   8        8        9 1
   9        9        5 2
  10        8       10 1
  11       10       11 1
  12       11       12 ar
  13       12       13 ar
  14       13       14 ar
  15       14       15 ar
  16       15       16 1
  17       15       17 ar
  18       17       11 ar
  19       10       18 1
  20       18       19 1
  21       19       20 1
  22       20       21 ar
  23       21       22 ar
  24       22       23 ar
  25       23       24 1
  26       23       25 ar
  27       25       26 ar
  28       26       20 ar
  29       19       27 2
  30       27        7 1
  31       10       28 1
  32        1       29 1
  33        2       30 1
  34        2       31 1
  35        3       32 1
  36        3       33 1
  37        4       34 1
  38        4       35 1
  39       12       36 1
  40       13       37 1
  41       14       38 1
  42       17       39 1
  43       18       40 1
  44       18       41 1
  45       21       42 1
  46       22       43 1
  47       25       44 1
  48       26       45 1

