@<TRIPOS>MOLECULE
*****
 45 48 0 0 0
SMALL
USER_CHARGES

@<TRIPOS>ATOM
      1 O1          0.4727    0.4727   -1.2825 O.3     1  LIG1        0.0000
      2 C2          1.2925    1.2925   -0.4626 C.3     1  LIG1        0.0000
      3 C3          1.0000    1.0000    1.0000 C.3     1  LIG1        0.0000
      4 C4          1.8776    1.8776    1.8776 C.3     1  LIG1        0.0000
      5 C5          1.5851    1.5851    3.3401 C.2     1  LIG1        0.0000
      6 N6          0.6778    0.6812    3.8012 N.2     1  LIG1        0.0000
      7 C7          0.7228    0.7376    5.1154 C.2     1  LIG1        0.0000
      8 N8          1.6601    1.6517    5.4676 N.pl3   1  LIG1        0.0000
      9 N9          2.1631    2.1631    4.3638 N.2     1  LIG1        0.0000
     10 C10         1.9636    1.9312    6.8802 C.3     1  LIG1        0.0000
     11 C11         1.1081    3.0718    7.4075 C.ar    1  LIG1        0.0000
     12 C12        -0.1265    2.7928    7.9846 C.ar    1  LIG1        0.0000
     13 C13        -0.9030    3.8425    8.4647 C.ar    1  LIG1        0.0000
     14 C14        -0.4597    5.1577    8.3734 C.ar    1  LIG1        0.0000
     15 C15         0.7782    5.4129    7.7924 C.ar    1  LIG1        0.0000
     16 Cl16        1.3596    7.0905    7.6670 Cl      1  LIG1        0.0000
     17 C17         1.5716    4.3794    7.3057 C.ar    1  LIG1        0.0000
     18 C18         1.7459    0.6588    7.6853 C.3     1  LIG1        0.0000
     19 C19         0.4368   -0.0229    7.3153 C.2     1  LIG1        0.0000
     20 C20        -0.2837   -0.7493    8.3428 C.ar    1  LIG1        0.0000
     21 C21        -1.4808   -1.3838    8.0268 C.ar    1  LIG1        0.0000
     22 C22        -2.1678   -2.0786    9.0169 C.ar    1  LIG1        0.0000
     23 C23        -1.6528   -2.1310   10.3078 C.ar    1  LIG1        0.0000
     24 Br24       -2.6262   -3.1108   11.6984 Br      1  LIG1        0.0000
     25 C25        -0.4564   -1.4975   10.6267 C.ar    1  LIG1        0.0000
     26 C26         0.2288   -0.8032    9.6354 C.ar    1  LIG1        0.0000
     27 N27         0.0136    0.0600    6.1177 N.2     1  LIG1        0.0000
     28 H           2.9257    2.1940    6.9535 H       1  LIG1        0.0000
     29 H           0.6651    0.6651   -2.2447 H       1  LIG1        0.0000
     30 H           1.1001    2.2548   -0.6551 H       1  LIG1        0.0000
     31 H           2.2548    1.1001   -0.6551 H       1  LIG1        0.0000
     32 H           1.1925    0.0377    1.1925 H       1  LIG1        0.0000
     33 H           0.0377    1.1925    1.1925 H       1  LIG1        0.0000
     34 H           2.8398    1.6851    1.6851 H       1  LIG1        0.0000
     35 H           1.6851    2.8398    1.6851 H       1  LIG1        0.0000
     36 H          -0.4518    1.8496    8.0534 H       1  LIG1        0.0000
     37 H          -1.7915    3.6489    8.8809 H       1  LIG1        0.0000
     38 H          -1.0222    5.9083    8.7201 H       1  LIG1        0.0000
     39 H           2.4601    4.5730    6.8897 H       1  LIG1        0.0000
     40 H           2.5015    0.0286    7.5064 H       1  LIG1        0.0000
     41 H           1.7276    0.8897    8.6581 H       1  LIG1        0.0000
     42 H          -1.8442   -1.3407    7.0962 H       1  LIG1        0.0000
     43 H          -3.0290   -2.5387    8.8012 H       1  LIG1        0.0000
     44 H          -0.0934   -1.5407   11.5575 H       1  LIG1        0.0000
     45 H           1.0898   -0.3427    9.8515 H       1  LIG1        0.0000
@<TRIPOS>BOND
     1     1     2    1
     2     2     3    1
     3     3     4    1
     4     4     5    1
     5     5     6    1
     6     6     7    2
     7     7     8    1
     8     8     9    1
     9     9     5    2
    10     8    10    1
    11    10    11    1
    12    11    12   ar
    13    12    13   ar
    14    13    14   ar
    15    14    15   ar
    16    15    16    1
    17    15    17   ar
    18    17    11   ar
    19    10    18    1
    20    18    19    1
    21    19    20    1
    22    20    21   ar
    23    21    22   ar
    24    22    23   ar
    25    23    24    1
    26    23    25   ar
    27    25    26   ar
    28    26    20   ar
    29    19    27    2
    30    27     7    1
    31    10    28    1
    32     1    29    1
    33     2    30    1
    34     2    31    1
    35     3    32    1
    36     3    33    1
    37     4    34    1
    38     4    35    1
    39    12    36    1
    40    13    37    1
    41    14    38    1
    42    17    39    1
    43    18    40    1
    44    18    41    1
    45    21    42    1
    46    22    43    1
    47    25    44    1
    48    26    45    1
