@<TRIPOS>MOLECULE
*****
 45 48 0 0 0
SMALL
USER_CHARGES

@<TRIPOS>ATOM
      1 O1          0.4727    0.4727   -1.2825 O.3     1  LIG1        0.0000
      2 C2          1.2925    1.2925   -0.4626 C.3     1  LIG1        0.0000
      3 C3          1.0000    1.0000    1.0000 C.3     1  LIG1        0.0000
      4 C4          1.8776    1.8776    1.8776 C.3     1  LIG1        0.0000
      5 C5          1.5850    1.5850    3.3402 C.2     1  LIG1        0.0000
      6 N6          2.2174    0.6480    4.1001 N.2     1  LIG1        0.0000
      7 C7          1.6741    0.7214    5.3014 C.2     1  LIG1        0.0000
      8 N8          0.7183    1.6786    5.2783 N.pl3   1  LIG1        0.0000
      9 N9          0.6822    2.1961    4.0699 N.2     1  LIG1        0.0000
     10 C10        -0.0790    1.9930    6.4736 C.3     1  LIG1        0.0000
     11 C11        -1.4461    2.5505    6.1113 C.ar    1  LIG1        0.0000
     12 C12        -2.5178    1.6803    5.9391 C.ar    1  LIG1        0.0000
     13 C13        -3.7654    2.1989    5.6077 C.ar    1  LIG1        0.0000
     14 C14        -3.9493    3.5683    5.4479 C.ar    1  LIG1        0.0000
     15 C15        -2.8632    4.4194    5.6249 C.ar    1  LIG1        0.0000
     16 Cl16       -3.0816    6.1743    5.4231 Cl      1  LIG1        0.0000
     17 C17        -1.6068    3.9235    5.9566 C.ar    1  LIG1        0.0000
     18 C18        -0.3128    0.7422    7.3053 C.3     1  LIG1        0.0000
     19 C19         1.0102    0.0046    7.4388 C.2     1  LIG1        0.0000
     20 C20         1.2286   -0.7351    8.6666 C.ar    1  LIG1        0.0000
     21 C21         2.4169   -1.4360    8.8463 C.ar    1  LIG1        0.0000
     22 C22         2.6205   -2.1443   10.0260 C.ar    1  LIG1        0.0000
     23 C23         1.6374   -2.1448   11.0098 C.ar    1  LIG1        0.0000
     24 Br24        1.9301   -3.1456   12.6693 Br      1  LIG1        0.0000
     25 C25         0.4484   -1.4452   10.8329 C.ar    1  LIG1        0.0000
     26 C26         0.2467   -0.7378    9.6525 C.ar    1  LIG1        0.0000
     27 N27         1.8801    0.0348    6.5075 N.2     1  LIG1        0.0000
     28 H           0.4123    2.6660    7.0265 H       1  LIG1        0.0000
     29 H           0.6651    0.6651   -2.2447 H       1  LIG1        0.0000
     30 H           1.1001    2.2548   -0.6551 H       1  LIG1        0.0000
     31 H           2.2548    1.1001   -0.6551 H       1  LIG1        0.0000
     32 H           1.1925    0.0377    1.1925 H       1  LIG1        0.0000
     33 H           0.0377    1.1925    1.1925 H       1  LIG1        0.0000
     34 H           2.8398    1.6851    1.6851 H       1  LIG1        0.0000
     35 H           1.6851    2.8398    1.6851 H       1  LIG1        0.0000
     36 H          -2.3929    0.6946    6.0522 H       1  LIG1        0.0000
     37 H          -4.5401    1.5790    5.4826 H       1  LIG1        0.0000
     38 H          -4.8484    3.9355    5.2094 H       1  LIG1        0.0000
     39 H          -0.8323    4.5435    6.0817 H       1  LIG1        0.0000
     40 H          -0.6511    0.9966    8.2113 H       1  LIG1        0.0000
     41 H          -0.9833    0.1549    6.8519 H       1  LIG1        0.0000
     42 H           3.1184   -1.4307    8.1336 H       1  LIG1        0.0000
     43 H           3.4709   -2.6515   10.1663 H       1  LIG1        0.0000
     44 H          -0.2529   -1.4508   11.5458 H       1  LIG1        0.0000
     45 H          -0.6040   -0.2311    9.5124 H       1  LIG1        0.0000
@<TRIPOS>BOND
     1     1     2    1
     2     2     3    1
     3     3     4    1
     4     4     5    1
     5     5     6    1
     6     6     7    2
     7     7     8    1
     8     8     9    1
     9     9     5    2
    10     8    10    1
    11    10    11    1
    12    11    12   ar
    13    12    13   ar
    14    13    14   ar
    15    14    15   ar
    16    15    16    1
    17    15    17   ar
    18    17    11   ar
    19    10    18    1
    20    18    19    1
    21    19    20    1
    22    20    21   ar
    23    21    22   ar
    24    22    23   ar
    25    23    24    1
    26    23    25   ar
    27    25    26   ar
    28    26    20   ar
    29    19    27    2
    30    27     7    1
    31    10    28    1
    32     1    29    1
    33     2    30    1
    34     2    31    1
    35     3    32    1
    36     3    33    1
    37     4    34    1
    38     4    35    1
    39    12    36    1
    40    13    37    1
    41    14    38    1
    42    17    39    1
    43    18    40    1
    44    18    41    1
    45    21    42    1
    46    22    43    1
    47    25    44    1
    48    26    45    1
