@<TRIPOS>MOLECULE
*****
 45 48 0 0 0
SMALL
USER_CHARGES

@<TRIPOS>ATOM
      1 O1          0.4727    0.4727   -1.2825 O.3     1  LIG1        0.0000
      2 C2          1.2925    1.2925   -0.4626 C.3     1  LIG1        0.0000
      3 C3          1.0000    1.0000    1.0000 C.3     1  LIG1        0.0000
      4 C4          1.8776    1.8776    1.8776 C.3     1  LIG1        0.0000
      5 C5          1.5850    1.5850    3.3402 C.2     1  LIG1        0.0000
      6 N6          0.6776    0.6783    3.7982 N.2     1  LIG1        0.0000
      7 C7          0.7395    0.7300    5.1162 C.2     1  LIG1        0.0000
      8 N8          1.6605    1.6586    5.4627 N.pl3   1  LIG1        0.0000
      9 N9          2.1675    2.1675    4.3612 N.2     1  LIG1        0.0000
     10 C10         1.9539    1.9565    6.8729 C.3     1  LIG1        0.0000
     11 C11         2.4577    3.3788    7.0577 C.ar    1  LIG1        0.0000
     12 C12         3.8227    3.6375    6.9854 C.ar    1  LIG1        0.0000
     13 C13         4.2752    4.9419    7.1556 C.ar    1  LIG1        0.0000
     14 C14         3.3825    5.9812    7.3957 C.ar    1  LIG1        0.0000
     15 C15         2.0220    5.6988    7.4640 C.ar    1  LIG1        0.0000
     16 Cl16        0.8666    7.0174    7.7715 Cl      1  LIG1        0.0000
     17 C17         1.5468    4.4025    7.2968 C.ar    1  LIG1        0.0000
     18 C18         0.7013    1.8124    7.7222 C.3     1  LIG1        0.0000
     19 C19         0.0142    0.5106    7.3408 C.2     1  LIG1        0.0000
     20 C20        -0.7080   -0.1826    8.3898 C.ar    1  LIG1        0.0000
     21 C21        -1.3631   -1.3758    8.1023 C.ar    1  LIG1        0.0000
     22 C22        -2.0548   -2.0359    9.1126 C.ar    1  LIG1        0.0000
     23 C23        -2.0845   -1.4978   10.3948 C.ar    1  LIG1        0.0000
     24 Br24       -3.0616   -2.4324   11.8136 Br      1  LIG1        0.0000
     25 C25        -1.4307   -0.3051   10.6851 C.ar    1  LIG1        0.0000
     26 C26        -0.7399    0.3536    9.6735 C.ar    1  LIG1        0.0000
     27 N27         0.0699    0.0585    6.1502 N.2     1  LIG1        0.0000
     28 H           2.6486    1.3180    7.2042 H       1  LIG1        0.0000
     29 H           0.6651    0.6651   -2.2447 H       1  LIG1        0.0000
     30 H           1.1001    2.2548   -0.6551 H       1  LIG1        0.0000
     31 H           2.2548    1.1001   -0.6551 H       1  LIG1        0.0000
     32 H           1.1925    0.0377    1.1925 H       1  LIG1        0.0000
     33 H           0.0377    1.1925    1.1925 H       1  LIG1        0.0000
     34 H           2.8398    1.6851    1.6851 H       1  LIG1        0.0000
     35 H           1.6851    2.8398    1.6851 H       1  LIG1        0.0000
     36 H           4.4703    2.8953    6.8133 H       1  LIG1        0.0000
     37 H           5.2551    5.1350    7.1047 H       1  LIG1        0.0000
     38 H           3.7135    6.9170    7.5175 H       1  LIG1        0.0000
     39 H           0.5669    4.2096    7.3476 H       1  LIG1        0.0000
     40 H           0.9496    1.7927    8.6906 H       1  LIG1        0.0000
     41 H           0.0863    2.5822    7.5513 H       1  LIG1        0.0000
     42 H          -1.3369   -1.7555    7.1776 H       1  LIG1        0.0000
     43 H          -2.5290   -2.8944    8.9177 H       1  LIG1        0.0000
     44 H          -1.4571    0.0744   11.6100 H       1  LIG1        0.0000
     45 H          -0.2661    1.2123    9.8687 H       1  LIG1        0.0000
@<TRIPOS>BOND
     1     1     2    1
     2     2     3    1
     3     3     4    1
     4     4     5    1
     5     5     6    1
     6     6     7    2
     7     7     8    1
     8     8     9    1
     9     9     5    2
    10     8    10    1
    11    10    11    1
    12    11    12   ar
    13    12    13   ar
    14    13    14   ar
    15    14    15   ar
    16    15    16    1
    17    15    17   ar
    18    17    11   ar
    19    10    18    1
    20    18    19    1
    21    19    20    1
    22    20    21   ar
    23    21    22   ar
    24    22    23   ar
    25    23    24    1
    26    23    25   ar
    27    25    26   ar
    28    26    20   ar
    29    19    27    2
    30    27     7    1
    31    10    28    1
    32     1    29    1
    33     2    30    1
    34     2    31    1
    35     3    32    1
    36     3    33    1
    37     4    34    1
    38     4    35    1
    39    12    36    1
    40    13    37    1
    41    14    38    1
    42    17    39    1
    43    18    40    1
    44    18    41    1
    45    21    42    1
    46    22    43    1
    47    25    44    1
    48    26    45    1
