@<TRIPOS>MOLECULE
*****
 45 48 0 0 0
SMALL
USER_CHARGES

@<TRIPOS>ATOM
      1 O1          0.4727    0.4727   -1.2825 O.3     1  LIG1        0.0000
      2 C2          1.2925    1.2925   -0.4626 C.3     1  LIG1        0.0000
      3 C3          1.0000    1.0000    1.0000 C.3     1  LIG1        0.0000
      4 C4          1.8776    1.8776    1.8776 C.3     1  LIG1        0.0000
      5 C5          1.1567    2.1701    3.1835 C.2     1  LIG1        0.0000
      6 N6          0.2587    1.3461    3.7917 N.2     1  LIG1        0.0000
      7 C7         -0.1215    1.9664    4.8937 C.2     1  LIG1        0.0000
      8 N8          0.5230    3.1544    4.9570 N.pl3   1  LIG1        0.0000
      9 N9          1.3018    3.2577    3.9025 N.2     1  LIG1        0.0000
     10 C10         0.3016    4.0865    6.0731 C.3     1  LIG1        0.0000
     11 C11         0.5517    5.5290    5.6635 C.ar    1  LIG1        0.0000
     12 C12         1.8260    6.0697    5.8011 C.ar    1  LIG1        0.0000
     13 C13         2.0462    7.3905    5.4238 C.ar    1  LIG1        0.0000
     14 C14         1.0119    8.1690    4.9147 C.ar    1  LIG1        0.0000
     15 C15        -0.2541    7.6071    4.7861 C.ar    1  LIG1        0.0000
     16 Cl16       -1.5886    8.5901    4.1372 Cl      1  LIG1        0.0000
     17 C17        -0.4975    6.2888    5.1567 C.ar    1  LIG1        0.0000
     18 C18        -1.1353    4.0038    6.5626 C.3     1  LIG1        0.0000
     19 C19        -1.5064    2.5361    6.7049 C.2     1  LIG1        0.0000
     20 C20        -2.4489    2.1957    7.7529 C.ar    1  LIG1        0.0000
     21 C21        -2.8332    0.8704    7.9297 C.ar    1  LIG1        0.0000
     22 C22        -3.7381    0.5500    8.9363 C.ar    1  LIG1        0.0000
     23 C23        -4.2478    1.5545    9.7522 C.ar    1  LIG1        0.0000
     24 Br24       -5.5232    1.0965   11.1681 Br      1  LIG1        0.0000
     25 C25        -3.8657    2.8803    9.5777 C.ar    1  LIG1        0.0000
     26 C26        -2.9608    3.1986    8.5705 C.ar    1  LIG1        0.0000
     27 N27        -1.0122    1.6518    5.9310 N.2     1  LIG1        0.0000
     28 H           0.9171    3.8487    6.8245 H       1  LIG1        0.0000
     29 H           0.6651    0.6651   -2.2447 H       1  LIG1        0.0000
     30 H           1.1001    2.2548   -0.6551 H       1  LIG1        0.0000
     31 H           2.2548    1.1001   -0.6551 H       1  LIG1        0.0000
     32 H           1.1925    0.0377    1.1925 H       1  LIG1        0.0000
     33 H           0.0377    1.1925    1.1925 H       1  LIG1        0.0000
     34 H           2.7367    1.4034    2.0700 H       1  LIG1        0.0000
     35 H           2.0700    2.7367    1.4034 H       1  LIG1        0.0000
     36 H           2.5743    5.5161    6.1665 H       1  LIG1        0.0000
     37 H           2.9598    7.7855    5.5199 H       1  LIG1        0.0000
     38 H           1.1760    9.1179    4.6452 H       1  LIG1        0.0000
     39 H          -1.4112    5.8939    5.0605 H       1  LIG1        0.0000
     40 H          -1.2178    4.4610    7.4481 H       1  LIG1        0.0000
     41 H          -1.7435    4.4440    5.9021 H       1  LIG1        0.0000
     42 H          -2.4621    0.1544    7.3383 H       1  LIG1        0.0000
     43 H          -4.0213   -0.3993    9.0729 H       1  LIG1        0.0000
     44 H          -4.2369    3.5961   10.1692 H       1  LIG1        0.0000
     45 H          -2.6782    4.1481    8.4339 H       1  LIG1        0.0000
@<TRIPOS>BOND
     1     1     2    1
     2     2     3    1
     3     3     4    1
     4     4     5    1
     5     5     6    1
     6     6     7    2
     7     7     8    1
     8     8     9    1
     9     9     5    2
    10     8    10    1
    11    10    11    1
    12    11    12   ar
    13    12    13   ar
    14    13    14   ar
    15    14    15   ar
    16    15    16    1
    17    15    17   ar
    18    17    11   ar
    19    10    18    1
    20    18    19    1
    21    19    20    1
    22    20    21   ar
    23    21    22   ar
    24    22    23   ar
    25    23    24    1
    26    23    25   ar
    27    25    26   ar
    28    26    20   ar
    29    19    27    2
    30    27     7    1
    31    10    28    1
    32     1    29    1
    33     2    30    1
    34     2    31    1
    35     3    32    1
    36     3    33    1
    37     4    34    1
    38     4    35    1
    39    12    36    1
    40    13    37    1
    41    14    38    1
    42    17    39    1
    43    18    40    1
    44    18    41    1
    45    21    42    1
    46    22    43    1
    47    25    44    1
    48    26    45    1
