@<TRIPOS>MOLECULE
*****
 45 48 0 0 0
SMALL
USER_CHARGES

@<TRIPOS>ATOM
      1 O1          0.4727    0.4727   -1.2825 O.3     1  LIG1        0.0000
      2 C2          1.2925    1.2925   -0.4626 C.3     1  LIG1        0.0000
      3 C3          1.0000    1.0000    1.0000 C.3     1  LIG1        0.0000
      4 C4          1.8776    1.8776    1.8776 C.3     1  LIG1        0.0000
      5 C5          1.5851    1.5851    3.3401 C.2     1  LIG1        0.0000
      6 N6          2.2136    0.6483    4.1017 N.2     1  LIG1        0.0000
      7 C7          1.6669    0.7050    5.2977 C.2     1  LIG1        0.0000
      8 N8          0.7228    1.6780    5.2853 N.pl3   1  LIG1        0.0000
      9 N9          0.6851    2.1915    4.0739 N.2     1  LIG1        0.0000
     10 C10        -0.0580    2.0019    6.4900 C.3     1  LIG1        0.0000
     11 C11        -1.3442    1.1931    6.5413 C.ar    1  LIG1        0.0000
     12 C12        -2.4989    1.7035    5.9569 C.ar    1  LIG1        0.0000
     13 C13        -3.6715    0.9568    6.0084 C.ar    1  LIG1        0.0000
     14 C14        -3.6996   -0.2852    6.6341 C.ar    1  LIG1        0.0000
     15 C15        -2.5328   -0.7754    7.2117 C.ar    1  LIG1        0.0000
     16 Cl16       -2.5523   -2.3626    8.0171 Cl      1  LIG1        0.0000
     17 C17        -1.3490   -0.0465    7.1723 C.ar    1  LIG1        0.0000
     18 C18         0.8072    1.7430    7.7144 C.3     1  LIG1        0.0000
     19 C19         1.5291    0.4069    7.6198 C.2     1  LIG1        0.0000
     20 C20         1.7864   -0.3325    8.8402 C.ar    1  LIG1        0.0000
     21 C21         2.4485   -1.5546    8.7785 C.ar    1  LIG1        0.0000
     22 C22         2.6920   -2.2596    9.9526 C.ar    1  LIG1        0.0000
     23 C23         2.2721   -1.7375   11.1715 C.ar    1  LIG1        0.0000
     24 Br24        2.6174   -2.7364   12.8220 Br      1  LIG1        0.0000
     25 C25         1.6098   -0.5162   11.2362 C.ar    1  LIG1        0.0000
     26 C26         1.3671    0.1871   10.0611 C.ar    1  LIG1        0.0000
     27 N27         1.8889   -0.0216    6.4765 N.2     1  LIG1        0.0000
     28 H          -0.2933    2.9735    6.4656 H       1  LIG1        0.0000
     29 H           0.6651    0.6651   -2.2447 H       1  LIG1        0.0000
     30 H           1.1001    2.2548   -0.6551 H       1  LIG1        0.0000
     31 H           2.2548    1.1001   -0.6551 H       1  LIG1        0.0000
     32 H           1.1925    0.0377    1.1925 H       1  LIG1        0.0000
     33 H           0.0377    1.1925    1.1925 H       1  LIG1        0.0000
     34 H           2.8398    1.6851    1.6851 H       1  LIG1        0.0000
     35 H           1.6851    2.8398    1.6851 H       1  LIG1        0.0000
     36 H          -2.4861    2.5957    5.5056 H       1  LIG1        0.0000
     37 H          -4.5051    1.3176    5.5902 H       1  LIG1        0.0000
     38 H          -4.5454   -0.8175    6.6682 H       1  LIG1        0.0000
     39 H          -0.5154   -0.4075    7.5905 H       1  LIG1        0.0000
     40 H           1.4857    2.4734    7.7922 H       1  LIG1        0.0000
     41 H           0.2255    1.7404    8.5278 H       1  LIG1        0.0000
     42 H           2.7466   -1.9228    7.8979 H       1  LIG1        0.0000
     43 H           3.1673   -3.1388    9.9205 H       1  LIG1        0.0000
     44 H           1.3117   -0.1482   12.1170 H       1  LIG1        0.0000
     45 H           0.8914    1.0661   10.0936 H       1  LIG1        0.0000
@<TRIPOS>BOND
     1     1     2    1
     2     2     3    1
     3     3     4    1
     4     4     5    1
     5     5     6    1
     6     6     7    2
     7     7     8    1
     8     8     9    1
     9     9     5    2
    10     8    10    1
    11    10    11    1
    12    11    12   ar
    13    12    13   ar
    14    13    14   ar
    15    14    15   ar
    16    15    16    1
    17    15    17   ar
    18    17    11   ar
    19    10    18    1
    20    18    19    1
    21    19    20    1
    22    20    21   ar
    23    21    22   ar
    24    22    23   ar
    25    23    24    1
    26    23    25   ar
    27    25    26   ar
    28    26    20   ar
    29    19    27    2
    30    27     7    1
    31    10    28    1
    32     1    29    1
    33     2    30    1
    34     2    31    1
    35     3    32    1
    36     3    33    1
    37     4    34    1
    38     4    35    1
    39    12    36    1
    40    13    37    1
    41    14    38    1
    42    17    39    1
    43    18    40    1
    44    18    41    1
    45    21    42    1
    46    22    43    1
    47    25    44    1
    48    26    45    1
