@<TRIPOS>MOLECULE
*****
 45 48 0 0 0
SMALL
USER_CHARGES

@<TRIPOS>ATOM
      1 O1          0.4727    0.4727   -1.2825 O.3     1  LIG1        0.0000
      2 C2          1.2925    1.2925   -0.4626 C.3     1  LIG1        0.0000
      3 C3          1.0000    1.0000    1.0000 C.3     1  LIG1        0.0000
      4 C4          1.8776    1.8776    1.8776 C.3     1  LIG1        0.0000
      5 C5          1.1568    2.1701    3.1834 C.2     1  LIG1        0.0000
      6 N6          0.2576    1.3500    3.7928 N.2     1  LIG1        0.0000
      7 C7         -0.1377    1.9684    4.8854 C.2     1  LIG1        0.0000
      8 N8          0.5218    3.1504    4.9643 N.pl3   1  LIG1        0.0000
      9 N9          1.2973    3.2538    3.9058 N.2     1  LIG1        0.0000
     10 C10         0.3113    4.0701    6.0937 C.3     1  LIG1        0.0000
     11 C11        -0.7938    5.0680    5.7870 C.ar    1  LIG1        0.0000
     12 C12        -0.4751    6.2792    5.1813 C.ar    1  LIG1        0.0000
     13 C13        -1.4925    7.1867    4.9041 C.ar    1  LIG1        0.0000
     14 C14        -2.8145    6.8963    5.2247 C.ar    1  LIG1        0.0000
     15 C15        -3.1094    5.6790    5.8300 C.ar    1  LIG1        0.0000
     16 Cl16       -4.7960    5.2926    6.2476 Cl      1  LIG1        0.0000
     17 C17        -2.1088    4.7565    6.1164 C.ar    1  LIG1        0.0000
     18 C18        -0.0123    3.2509    7.3342 C.3     1  LIG1        0.0000
     19 C19        -1.0410    2.1689    7.0403 C.2     1  LIG1        0.0000
     20 C20        -1.9711    1.7910    8.0865 C.ar    1  LIG1        0.0000
     21 C21        -2.9179    0.8014    7.8419 C.ar    1  LIG1        0.0000
     22 C22        -3.8079    0.4436    8.8493 C.ar    1  LIG1        0.0000
     23 C23        -3.7424    1.0769   10.0858 C.ar    1  LIG1        0.0000
     24 Br24       -4.9999    0.5687   11.5006 Br      1  LIG1        0.0000
     25 C25        -2.7971    2.0666   10.3332 C.ar    1  LIG1        0.0000
     26 C26        -1.9083    2.4232    9.3246 C.ar    1  LIG1        0.0000
     27 N27        -1.0545    1.6250    5.8895 N.2     1  LIG1        0.0000
     28 H           1.1595    4.5740    6.2568 H       1  LIG1        0.0000
     29 H           0.6651    0.6651   -2.2447 H       1  LIG1        0.0000
     30 H           1.1001    2.2548   -0.6551 H       1  LIG1        0.0000
     31 H           2.2548    1.1001   -0.6551 H       1  LIG1        0.0000
     32 H           1.1925    0.0377    1.1925 H       1  LIG1        0.0000
     33 H           0.0377    1.1925    1.1925 H       1  LIG1        0.0000
     34 H           2.7367    1.4034    2.0700 H       1  LIG1        0.0000
     35 H           2.0700    2.7367    1.4034 H       1  LIG1        0.0000
     36 H           0.4731    6.4948    4.9482 H       1  LIG1        0.0000
     37 H          -1.2704    8.0591    4.4687 H       1  LIG1        0.0000
     38 H          -3.5417    7.5525    5.0233 H       1  LIG1        0.0000
     39 H          -2.3309    3.8840    6.5517 H       1  LIG1        0.0000
     40 H           0.8267    2.8191    7.6656 H       1  LIG1        0.0000
     41 H          -0.3748    3.8600    8.0396 H       1  LIG1        0.0000
     42 H          -2.9583    0.3514    6.9498 H       1  LIG1        0.0000
     43 H          -4.4925   -0.2666    8.6850 H       1  LIG1        0.0000
     44 H          -2.7570    2.5165   11.2254 H       1  LIG1        0.0000
     45 H          -1.2241    3.1337    9.4891 H       1  LIG1        0.0000
@<TRIPOS>BOND
     1     1     2    1
     2     2     3    1
     3     3     4    1
     4     4     5    1
     5     5     6    1
     6     6     7    2
     7     7     8    1
     8     8     9    1
     9     9     5    2
    10     8    10    1
    11    10    11    1
    12    11    12   ar
    13    12    13   ar
    14    13    14   ar
    15    14    15   ar
    16    15    16    1
    17    15    17   ar
    18    17    11   ar
    19    10    18    1
    20    18    19    1
    21    19    20    1
    22    20    21   ar
    23    21    22   ar
    24    22    23   ar
    25    23    24    1
    26    23    25   ar
    27    25    26   ar
    28    26    20   ar
    29    19    27    2
    30    27     7    1
    31    10    28    1
    32     1    29    1
    33     2    30    1
    34     2    31    1
    35     3    32    1
    36     3    33    1
    37     4    34    1
    38     4    35    1
    39    12    36    1
    40    13    37    1
    41    14    38    1
    42    17    39    1
    43    18    40    1
    44    18    41    1
    45    21    42    1
    46    22    43    1
    47    25    44    1
    48    26    45    1
