@<TRIPOS>MOLECULE

  63   67
SMALL
USER_CHARGES
@<TRIPOS>ATOM
   1 C1          -5.3149    -0.7747    -1.9066 C.3          1    LIG   0.0000
   2 C2          -4.3451     0.2077    -1.2706 C.2          1    LIG   0.0000
   3 C3          -4.6277     1.1208    -0.3019 C.2          1    LIG   0.0000
   4 C4          -3.5368     1.9275     0.1252 C.2          1    LIG   0.0000
   5 C5          -2.3773     1.6328    -0.5270 C.2          1    LIG   0.0000
   6 C6          -1.0826     2.2595    -0.3380 C.2          1    LIG   0.0000
   7 O7          -0.9527     3.4372    -0.5282 O.2          1    LIG   0.0000
   8 N8           0.0146     1.4907     0.0659 N.am         1    LIG   0.0000
   9 C9           1.3128     2.1595     0.2478 C.3          1    LIG   0.0000
  10 C10          2.1248     1.5105     1.3598 C.3          1    LIG   0.0000
  11 N11          2.1168     0.0412     1.2706 N.3          1    LIG   0.0000
  12 C12          2.8849    -0.4673     2.4166 C.3          1    LIG   0.0000
  13 N13          4.3091    -0.1548     2.2294 N.am         1    LIG   0.0000
  14 C14          4.9456     1.0034     2.6717 C.2          1    LIG   0.0000
  15 O15          4.4164     1.9162     3.2873 O.2          1    LIG   0.0000
  16 C16          6.4056     0.9372     2.2687 C.3          1    LIG   0.0000
  17 C17          6.6561     2.0227     1.2343 C.ar         1    LIG   0.0000
  18 C18          7.4211     3.1337     1.5740 C.ar         1    LIG   0.0000
  19 C19          7.6447     4.1224     0.6217 C.ar         1    LIG   0.0000
  20 C20          7.1058     3.9942    -0.6549 C.ar         1    LIG   0.0000
  21 C21          6.3422     2.8796    -0.9861 C.ar         1    LIG   0.0000
  22 C22          6.1132     1.8863    -0.0392 C.ar         1    LIG   0.0000
  23 N23          6.4932    -0.3662     1.6043 N.am         1    LIG   0.0000
  24 C24          7.7217    -0.9474     1.0428 C.3          1    LIG   0.0000
  25 C25          7.9931    -0.3365    -0.3226 C.ar         1    LIG   0.0000
  26 C26          7.4641    -0.9347    -1.4616 C.ar         1    LIG   0.0000
  27 C27          7.7180    -0.3695    -2.7069 C.ar         1    LIG   0.0000
  28 C28          8.4935     0.7820    -2.8039 C.ar         1    LIG   0.0000
  29 C29          9.0183     1.3736    -1.6595 C.ar         1    LIG   0.0000
  30 C30          8.7696     0.8143    -0.4101 C.ar         1    LIG   0.0000
  31 C31          5.2375    -0.9734     1.5890 C.2          1    LIG   0.0000
  32 O32          4.9884    -2.0613     1.0951 O.2          1    LIG   0.0000
  33 C33          0.7393    -0.4586     1.4129 C.3          1    LIG   0.0000
  34 C34         -0.1742     0.0510     0.3077 C.3          1    LIG   0.0000
  35 S35         -2.6891     0.3780    -1.6345 S.3          1    LIG   0.0000
  36 H            7.0217     1.0079     3.0532 H            1    LIG   0.0000
  37 H           -6.2222    -0.6560    -1.5033 H            1    LIG   0.0000
  38 H           -5.3630    -0.6056    -2.8911 H            1    LIG   0.0000
  39 H           -4.9975    -1.7090    -1.7440 H            1    LIG   0.0000
  40 H           -5.5446     1.2184     0.0853 H            1    LIG   0.0000
  41 H           -3.6126     2.6346     0.8283 H            1    LIG   0.0000
  42 H            1.1540     3.1193     0.4793 H            1    LIG   0.0000
  43 H            1.8294     2.1038    -0.6066 H            1    LIG   0.0000
  44 H            3.0699     1.8316     1.2977 H            1    LIG   0.0000
  45 H            1.7379     1.7816     2.2412 H            1    LIG   0.0000
  46 H            2.5564    -0.0349     3.2563 H            1    LIG   0.0000
  47 H            2.7670    -1.4580     2.4837 H            1    LIG   0.0000
  48 H            7.8060     3.2205     2.4929 H            1    LIG   0.0000
  49 H            8.1928     4.9258     0.8544 H            1    LIG   0.0000
  50 H            7.2684     4.7067    -1.3375 H            1    LIG   0.0000
  51 H            5.9578     2.7922    -1.9051 H            1    LIG   0.0000
  52 H            5.5645     1.0832    -0.2715 H            1    LIG   0.0000
  53 H            7.6098    -1.9367     0.9491 H            1    LIG   0.0000
  54 H            8.4904    -0.7552     1.6527 H            1    LIG   0.0000
  55 H            6.9074    -1.7619    -1.3859 H            1    LIG   0.0000
  56 H            7.3432    -0.7907    -3.5327 H            1    LIG   0.0000
  57 H            8.6743     1.1860    -3.7006 H            1    LIG   0.0000
  58 H            9.5745     2.2012    -1.7349 H            1    LIG   0.0000
  59 H            9.1450     1.2350     0.4158 H            1    LIG   0.0000
  60 H            0.3768    -0.1573     2.2948 H            1    LIG   0.0000
  61 H            0.7546    -1.4580     1.3827 H            1    LIG   0.0000
  62 H            0.0270    -0.4482    -0.5351 H            1    LIG   0.0000
  63 H           -1.1248    -0.1112     0.5723 H            1    LIG   0.0000
@<TRIPOS>BOND
   1        1        2 1
   2        2        3 2
   3        3        4 1
   4        4        5 2
   5        5        6 1
   6        6        7 2
   7        6        8 am
   8        8        9 1
   9        9       10 1
  10       10       11 1
  11       11       12 1
  12       12       13 1
  13       13       14 am
  14       14       15 2
  15       14       16 1
  16       16       17 1
  17       17       18 ar
  18       18       19 ar
  19       19       20 ar
  20       20       21 ar
  21       21       22 ar
  22       22       17 ar
  23       16       23 1
  24       23       24 1
  25       24       25 1
  26       25       26 ar
  27       26       27 ar
  28       27       28 ar
  29       28       29 ar
  30       29       30 ar
  31       30       25 ar
  32       23       31 am
  33       31       13 am
  34       31       32 2
  35       11       33 1
  36       33       34 1
  37       34        8 1
  38        5       35 1
  39       35        2 1
  40       16       36 1
  41        1       37 1
  42        1       38 1
  43        1       39 1
  44        3       40 1
  45        4       41 1
  46        9       42 1
  47        9       43 1
  48       10       44 1
  49       10       45 1
  50       12       46 1
  51       12       47 1
  52       18       48 1
  53       19       49 1
  54       20       50 1
  55       21       51 1
  56       22       52 1
  57       24       53 1
  58       24       54 1
  59       26       55 1
  60       27       56 1
  61       28       57 1
  62       29       58 1
  63       30       59 1
  64       33       60 1
  65       33       61 1
  66       34       62 1
  67       34       63 1

@<TRIPOS>MOLECULE

  63   67
SMALL
USER_CHARGES
@<TRIPOS>ATOM
   1 C1          -0.1505     7.6060     0.0155 C.3          1    LIG   0.0000
   2 C2          -0.4863     6.1793    -0.3871 C.2          1    LIG   0.0000
   3 C3          -0.8992     5.7537    -1.6119 C.2          1    LIG   0.0000
   4 C4          -1.1504     4.3585    -1.7298 C.2          1    LIG   0.0000
   5 C5          -0.9255     3.6832    -0.5679 C.2          1    LIG   0.0000
   6 C6          -1.0826     2.2595    -0.3380 C.2          1    LIG   0.0000
   7 O7          -2.1535     1.7411    -0.4943 O.2          1    LIG   0.0000
   8 N8           0.0146     1.4907     0.0659 N.am         1    LIG   0.0000
   9 C9           1.3128     2.1595     0.2478 C.3          1    LIG   0.0000
  10 C10          2.1248     1.5105     1.3598 C.3          1    LIG   0.0000
  11 N11          2.1168     0.0412     1.2706 N.3          1    LIG   0.0000
  12 C12          2.8849    -0.4673     2.4166 C.3          1    LIG   0.0000
  13 N13          4.3091    -0.1548     2.2294 N.am         1    LIG   0.0000
  14 C14          4.9456     1.0034     2.6717 C.2          1    LIG   0.0000
  15 O15          4.4164     1.9162     3.2873 O.2          1    LIG   0.0000
  16 C16          6.4056     0.9372     2.2687 C.3          1    LIG   0.0000
  17 C17          6.6561     2.0227     1.2343 C.ar         1    LIG   0.0000
  18 C18          7.4211     3.1337     1.5740 C.ar         1    LIG   0.0000
  19 C19          7.6447     4.1224     0.6217 C.ar         1    LIG   0.0000
  20 C20          7.1058     3.9942    -0.6549 C.ar         1    LIG   0.0000
  21 C21          6.3422     2.8796    -0.9861 C.ar         1    LIG   0.0000
  22 C22          6.1132     1.8863    -0.0392 C.ar         1    LIG   0.0000
  23 N23          6.4932    -0.3662     1.6043 N.am         1    LIG   0.0000
  24 C24          7.7217    -0.9474     1.0428 C.3          1    LIG   0.0000
  25 C25          7.9931    -0.3365    -0.3226 C.ar         1    LIG   0.0000
  26 C26          7.4641    -0.9347    -1.4616 C.ar         1    LIG   0.0000
  27 C27          7.7180    -0.3695    -2.7069 C.ar         1    LIG   0.0000
  28 C28          8.4935     0.7820    -2.8039 C.ar         1    LIG   0.0000
  29 C29          9.0183     1.3736    -1.6595 C.ar         1    LIG   0.0000
  30 C30          8.7696     0.8143    -0.4101 C.ar         1    LIG   0.0000
  31 C31          5.2375    -0.9734     1.5890 C.2          1    LIG   0.0000
  32 O32          4.9884    -2.0613     1.0951 O.2          1    LIG   0.0000
  33 C33          0.7393    -0.4586     1.4129 C.3          1    LIG   0.0000
  34 C34         -0.1742     0.0510     0.3077 C.3          1    LIG   0.0000
  35 S35         -0.4174     4.8005     0.6119 S.3          1    LIG   0.0000
  36 H            7.0217     1.0079     3.0532 H            1    LIG   0.0000
  37 H           -0.2785     8.2127    -0.7690 H            1    LIG   0.0000
  38 H           -0.7529     7.8927     0.7604 H            1    LIG   0.0000
  39 H            0.8010     7.6512     0.3201 H            1    LIG   0.0000
  40 H           -1.0186     6.3821    -2.3806 H            1    LIG   0.0000
  41 H           -1.4588     3.9206    -2.5743 H            1    LIG   0.0000
  42 H            1.1540     3.1193     0.4793 H            1    LIG   0.0000
  43 H            1.8294     2.1038    -0.6066 H            1    LIG   0.0000
  44 H            3.0699     1.8316     1.2977 H            1    LIG   0.0000
  45 H            1.7379     1.7816     2.2412 H            1    LIG   0.0000
  46 H            2.5564    -0.0349     3.2563 H            1    LIG   0.0000
  47 H            2.7670    -1.4580     2.4837 H            1    LIG   0.0000
  48 H            7.8060     3.2205     2.4929 H            1    LIG   0.0000
  49 H            8.1928     4.9258     0.8544 H            1    LIG   0.0000
  50 H            7.2684     4.7067    -1.3375 H            1    LIG   0.0000
  51 H            5.9578     2.7922    -1.9051 H            1    LIG   0.0000
  52 H            5.5645     1.0832    -0.2715 H            1    LIG   0.0000
  53 H            7.6098    -1.9367     0.9491 H            1    LIG   0.0000
  54 H            8.4904    -0.7552     1.6527 H            1    LIG   0.0000
  55 H            6.9074    -1.7619    -1.3859 H            1    LIG   0.0000
  56 H            7.3432    -0.7907    -3.5327 H            1    LIG   0.0000
  57 H            8.6743     1.1860    -3.7006 H            1    LIG   0.0000
  58 H            9.5745     2.2012    -1.7349 H            1    LIG   0.0000
  59 H            9.1450     1.2350     0.4158 H            1    LIG   0.0000
  60 H            0.3768    -0.1573     2.2948 H            1    LIG   0.0000
  61 H            0.7546    -1.4580     1.3827 H            1    LIG   0.0000
  62 H            0.0270    -0.4482    -0.5351 H            1    LIG   0.0000
  63 H           -1.1248    -0.1112     0.5723 H            1    LIG   0.0000
@<TRIPOS>BOND
   1        1        2 1
   2        2        3 2
   3        3        4 1
   4        4        5 2
   5        5        6 1
   6        6        7 2
   7        6        8 am
   8        8        9 1
   9        9       10 1
  10       10       11 1
  11       11       12 1
  12       12       13 1
  13       13       14 am
  14       14       15 2
  15       14       16 1
  16       16       17 1
  17       17       18 ar
  18       18       19 ar
  19       19       20 ar
  20       20       21 ar
  21       21       22 ar
  22       22       17 ar
  23       16       23 1
  24       23       24 1
  25       24       25 1
  26       25       26 ar
  27       26       27 ar
  28       27       28 ar
  29       28       29 ar
  30       29       30 ar
  31       30       25 ar
  32       23       31 am
  33       31       13 am
  34       31       32 2
  35       11       33 1
  36       33       34 1
  37       34        8 1
  38        5       35 1
  39       35        2 1
  40       16       36 1
  41        1       37 1
  42        1       38 1
  43        1       39 1
  44        3       40 1
  45        4       41 1
  46        9       42 1
  47        9       43 1
  48       10       44 1
  49       10       45 1
  50       12       46 1
  51       12       47 1
  52       18       48 1
  53       19       49 1
  54       20       50 1
  55       21       51 1
  56       22       52 1
  57       24       53 1
  58       24       54 1
  59       26       55 1
  60       27       56 1
  61       28       57 1
  62       29       58 1
  63       30       59 1
  64       33       60 1
  65       33       61 1
  66       34       62 1
  67       34       63 1

@<TRIPOS>MOLECULE

  63   67
SMALL
USER_CHARGES
@<TRIPOS>ATOM
   1 C1          -5.3149    -0.7747    -1.9066 C.3          1    LIG   0.0000
   2 C2          -4.3451     0.2077    -1.2706 C.2          1    LIG   0.0000
   3 C3          -4.6277     1.1208    -0.3019 C.2          1    LIG   0.0000
   4 C4          -3.5368     1.9275     0.1252 C.2          1    LIG   0.0000
   5 C5          -2.3773     1.6328    -0.5270 C.2          1    LIG   0.0000
   6 C6          -1.0826     2.2595    -0.3380 C.2          1    LIG   0.0000
   7 O7          -0.9527     3.4372    -0.5282 O.2          1    LIG   0.0000
   8 N8           0.0146     1.4907     0.0659 N.am         1    LIG   0.0000
   9 C9           1.3128     2.1595     0.2478 C.3          1    LIG   0.0000
  10 C10          2.1248     1.5105     1.3598 C.3          1    LIG   0.0000
  11 N11          2.1168     0.0412     1.2706 N.3          1    LIG   0.0000
  12 C12          2.8849    -0.4673     2.4166 C.3          1    LIG   0.0000
  13 N13          4.3091    -0.1548     2.2294 N.am         1    LIG   0.0000
  14 C14          4.9456     1.0034     2.6717 C.2          1    LIG   0.0000
  15 O15          4.4164     1.9162     3.2873 O.2          1    LIG   0.0000
  16 C16          6.4056     0.9372     2.2687 C.3          1    LIG   0.0000
  17 C17          6.6561     2.0227     1.2343 C.ar         1    LIG   0.0000
  18 C18          7.4211     3.1337     1.5740 C.ar         1    LIG   0.0000
  19 C19          7.6447     4.1224     0.6217 C.ar         1    LIG   0.0000
  20 C20          7.1058     3.9942    -0.6549 C.ar         1    LIG   0.0000
  21 C21          6.3422     2.8796    -0.9861 C.ar         1    LIG   0.0000
  22 C22          6.1132     1.8863    -0.0392 C.ar         1    LIG   0.0000
  23 N23          6.4932    -0.3662     1.6043 N.am         1    LIG   0.0000
  24 C24          7.7217    -0.9474     1.0428 C.3          1    LIG   0.0000
  25 C25          8.5522    -1.5553     2.1617 C.ar         1    LIG   0.0000
  26 C26          9.4968    -0.7745     2.8197 C.ar         1    LIG   0.0000
  27 C27         10.2528    -1.3389     3.8417 C.ar         1    LIG   0.0000
  28 C28         10.0600    -2.6706     4.1965 C.ar         1    LIG   0.0000
  29 C29          9.1129    -3.4439     3.5333 C.ar         1    LIG   0.0000
  30 C30          8.3530    -2.8874     2.5094 C.ar         1    LIG   0.0000
  31 C31          5.2375    -0.9734     1.5890 C.2          1    LIG   0.0000
  32 O32          4.9884    -2.0613     1.0951 O.2          1    LIG   0.0000
  33 C33          0.7393    -0.4586     1.4129 C.3          1    LIG   0.0000
  34 C34         -0.1742     0.0510     0.3077 C.3          1    LIG   0.0000
  35 S35         -2.6891     0.3780    -1.6345 S.3          1    LIG   0.0000
  36 H            7.0217     1.0079     3.0532 H            1    LIG   0.0000
  37 H           -6.2222    -0.6560    -1.5033 H            1    LIG   0.0000
  38 H           -5.3630    -0.6056    -2.8911 H            1    LIG   0.0000
  39 H           -4.9975    -1.7090    -1.7440 H            1    LIG   0.0000
  40 H           -5.5446     1.2184     0.0853 H            1    LIG   0.0000
  41 H           -3.6126     2.6346     0.8283 H            1    LIG   0.0000
  42 H            1.1540     3.1193     0.4793 H            1    LIG   0.0000
  43 H            1.8294     2.1038    -0.6066 H            1    LIG   0.0000
  44 H            3.0699     1.8316     1.2977 H            1    LIG   0.0000
  45 H            1.7379     1.7816     2.2412 H            1    LIG   0.0000
  46 H            2.5564    -0.0349     3.2563 H            1    LIG   0.0000
  47 H            2.7670    -1.4580     2.4837 H            1    LIG   0.0000
  48 H            7.8060     3.2205     2.4929 H            1    LIG   0.0000
  49 H            8.1928     4.9258     0.8544 H            1    LIG   0.0000
  50 H            7.2684     4.7067    -1.3375 H            1    LIG   0.0000
  51 H            5.9578     2.7922    -1.9051 H            1    LIG   0.0000
  52 H            5.5645     1.0832    -0.2715 H            1    LIG   0.0000
  53 H            8.2504    -0.2319     0.5861 H            1    LIG   0.0000
  54 H            7.4821    -1.6583     0.3815 H            1    LIG   0.0000
  55 H            9.6310     0.1820     2.5607 H            1    LIG   0.0000
  56 H           10.9351    -0.7875     4.3218 H            1    LIG   0.0000
  57 H           10.6050    -3.0736     4.9318 H            1    LIG   0.0000
  58 H            8.9781    -4.4003     3.7926 H            1    LIG   0.0000
  59 H            7.6712    -3.4388     2.0287 H            1    LIG   0.0000
  60 H            0.3768    -0.1573     2.2948 H            1    LIG   0.0000
  61 H            0.7546    -1.4580     1.3827 H            1    LIG   0.0000
  62 H            0.0270    -0.4482    -0.5351 H            1    LIG   0.0000
  63 H           -1.1248    -0.1112     0.5723 H            1    LIG   0.0000
@<TRIPOS>BOND
   1        1        2 1
   2        2        3 2
   3        3        4 1
   4        4        5 2
   5        5        6 1
   6        6        7 2
   7        6        8 am
   8        8        9 1
   9        9       10 1
  10       10       11 1
  11       11       12 1
  12       12       13 1
  13       13       14 am
  14       14       15 2
  15       14       16 1
  16       16       17 1
  17       17       18 ar
  18       18       19 ar
  19       19       20 ar
  20       20       21 ar
  21       21       22 ar
  22       22       17 ar
  23       16       23 1
  24       23       24 1
  25       24       25 1
  26       25       26 ar
  27       26       27 ar
  28       27       28 ar
  29       28       29 ar
  30       29       30 ar
  31       30       25 ar
  32       23       31 am
  33       31       13 am
  34       31       32 2
  35       11       33 1
  36       33       34 1
  37       34        8 1
  38        5       35 1
  39       35        2 1
  40       16       36 1
  41        1       37 1
  42        1       38 1
  43        1       39 1
  44        3       40 1
  45        4       41 1
  46        9       42 1
  47        9       43 1
  48       10       44 1
  49       10       45 1
  50       12       46 1
  51       12       47 1
  52       18       48 1
  53       19       49 1
  54       20       50 1
  55       21       51 1
  56       22       52 1
  57       24       53 1
  58       24       54 1
  59       26       55 1
  60       27       56 1
  61       28       57 1
  62       29       58 1
  63       30       59 1
  64       33       60 1
  65       33       61 1
  66       34       62 1
  67       34       63 1

@<TRIPOS>MOLECULE

  63   67
SMALL
USER_CHARGES
@<TRIPOS>ATOM
   1 C1          -0.1505     7.6060     0.0155 C.3          1    LIG   0.0000
   2 C2          -0.4863     6.1793    -0.3871 C.2          1    LIG   0.0000
   3 C3          -0.8992     5.7537    -1.6119 C.2          1    LIG   0.0000
   4 C4          -1.1504     4.3585    -1.7298 C.2          1    LIG   0.0000
   5 C5          -0.9255     3.6832    -0.5679 C.2          1    LIG   0.0000
   6 C6          -1.0826     2.2595    -0.3380 C.2          1    LIG   0.0000
   7 O7          -2.1535     1.7411    -0.4943 O.2          1    LIG   0.0000
   8 N8           0.0146     1.4907     0.0659 N.am         1    LIG   0.0000
   9 C9           1.3128     2.1595     0.2478 C.3          1    LIG   0.0000
  10 C10          2.1248     1.5105     1.3598 C.3          1    LIG   0.0000
  11 N11          2.1168     0.0412     1.2706 N.3          1    LIG   0.0000
  12 C12          2.8849    -0.4673     2.4166 C.3          1    LIG   0.0000
  13 N13          4.3091    -0.1548     2.2294 N.am         1    LIG   0.0000
  14 C14          4.9456     1.0034     2.6717 C.2          1    LIG   0.0000
  15 O15          4.4164     1.9162     3.2873 O.2          1    LIG   0.0000
  16 C16          6.4056     0.9372     2.2687 C.3          1    LIG   0.0000
  17 C17          6.6561     2.0227     1.2343 C.ar         1    LIG   0.0000
  18 C18          7.4211     3.1337     1.5740 C.ar         1    LIG   0.0000
  19 C19          7.6447     4.1224     0.6217 C.ar         1    LIG   0.0000
  20 C20          7.1058     3.9942    -0.6549 C.ar         1    LIG   0.0000
  21 C21          6.3422     2.8796    -0.9861 C.ar         1    LIG   0.0000
  22 C22          6.1132     1.8863    -0.0392 C.ar         1    LIG   0.0000
  23 N23          6.4932    -0.3662     1.6043 N.am         1    LIG   0.0000
  24 C24          7.7217    -0.9474     1.0428 C.3          1    LIG   0.0000
  25 C25          8.5522    -1.5553     2.1617 C.ar         1    LIG   0.0000
  26 C26          9.4968    -0.7745     2.8197 C.ar         1    LIG   0.0000
  27 C27         10.2528    -1.3389     3.8417 C.ar         1    LIG   0.0000
  28 C28         10.0600    -2.6706     4.1965 C.ar         1    LIG   0.0000
  29 C29          9.1129    -3.4439     3.5333 C.ar         1    LIG   0.0000
  30 C30          8.3530    -2.8874     2.5094 C.ar         1    LIG   0.0000
  31 C31          5.2375    -0.9734     1.5890 C.2          1    LIG   0.0000
  32 O32          4.9884    -2.0613     1.0951 O.2          1    LIG   0.0000
  33 C33          0.7393    -0.4586     1.4129 C.3          1    LIG   0.0000
  34 C34         -0.1742     0.0510     0.3077 C.3          1    LIG   0.0000
  35 S35         -0.4174     4.8005     0.6119 S.3          1    LIG   0.0000
  36 H            7.0217     1.0079     3.0532 H            1    LIG   0.0000
  37 H           -0.2785     8.2127    -0.7690 H            1    LIG   0.0000
  38 H           -0.7529     7.8927     0.7604 H            1    LIG   0.0000
  39 H            0.8010     7.6512     0.3201 H            1    LIG   0.0000
  40 H           -1.0186     6.3821    -2.3806 H            1    LIG   0.0000
  41 H           -1.4588     3.9206    -2.5743 H            1    LIG   0.0000
  42 H            1.1540     3.1193     0.4793 H            1    LIG   0.0000
  43 H            1.8294     2.1038    -0.6066 H            1    LIG   0.0000
  44 H            3.0699     1.8316     1.2977 H            1    LIG   0.0000
  45 H            1.7379     1.7816     2.2412 H            1    LIG   0.0000
  46 H            2.5564    -0.0349     3.2563 H            1    LIG   0.0000
  47 H            2.7670    -1.4580     2.4837 H            1    LIG   0.0000
  48 H            7.8060     3.2205     2.4929 H            1    LIG   0.0000
  49 H            8.1928     4.9258     0.8544 H            1    LIG   0.0000
  50 H            7.2684     4.7067    -1.3375 H            1    LIG   0.0000
  51 H            5.9578     2.7922    -1.9051 H            1    LIG   0.0000
  52 H            5.5645     1.0832    -0.2715 H            1    LIG   0.0000
  53 H            8.2504    -0.2319     0.5861 H            1    LIG   0.0000
  54 H            7.4821    -1.6583     0.3815 H            1    LIG   0.0000
  55 H            9.6310     0.1820     2.5607 H            1    LIG   0.0000
  56 H           10.9351    -0.7875     4.3218 H            1    LIG   0.0000
  57 H           10.6050    -3.0736     4.9318 H            1    LIG   0.0000
  58 H            8.9781    -4.4003     3.7926 H            1    LIG   0.0000
  59 H            7.6712    -3.4388     2.0287 H            1    LIG   0.0000
  60 H            0.3768    -0.1573     2.2948 H            1    LIG   0.0000
  61 H            0.7546    -1.4580     1.3827 H            1    LIG   0.0000
  62 H            0.0270    -0.4482    -0.5351 H            1    LIG   0.0000
  63 H           -1.1248    -0.1112     0.5723 H            1    LIG   0.0000
@<TRIPOS>BOND
   1        1        2 1
   2        2        3 2
   3        3        4 1
   4        4        5 2
   5        5        6 1
   6        6        7 2
   7        6        8 am
   8        8        9 1
   9        9       10 1
  10       10       11 1
  11       11       12 1
  12       12       13 1
  13       13       14 am
  14       14       15 2
  15       14       16 1
  16       16       17 1
  17       17       18 ar
  18       18       19 ar
  19       19       20 ar
  20       20       21 ar
  21       21       22 ar
  22       22       17 ar
  23       16       23 1
  24       23       24 1
  25       24       25 1
  26       25       26 ar
  27       26       27 ar
  28       27       28 ar
  29       28       29 ar
  30       29       30 ar
  31       30       25 ar
  32       23       31 am
  33       31       13 am
  34       31       32 2
  35       11       33 1
  36       33       34 1
  37       34        8 1
  38        5       35 1
  39       35        2 1
  40       16       36 1
  41        1       37 1
  42        1       38 1
  43        1       39 1
  44        3       40 1
  45        4       41 1
  46        9       42 1
  47        9       43 1
  48       10       44 1
  49       10       45 1
  50       12       46 1
  51       12       47 1
  52       18       48 1
  53       19       49 1
  54       20       50 1
  55       21       51 1
  56       22       52 1
  57       24       53 1
  58       24       54 1
  59       26       55 1
  60       27       56 1
  61       28       57 1
  62       29       58 1
  63       30       59 1
  64       33       60 1
  65       33       61 1
  66       34       62 1
  67       34       63 1

@<TRIPOS>MOLECULE

  63   67
SMALL
USER_CHARGES
@<TRIPOS>ATOM
   1 C1          -5.3149    -0.7747    -1.9066 C.3          1    LIG   0.0000
   2 C2          -4.3451     0.2077    -1.2706 C.2          1    LIG   0.0000
   3 C3          -4.6277     1.1208    -0.3019 C.2          1    LIG   0.0000
   4 C4          -3.5368     1.9275     0.1252 C.2          1    LIG   0.0000
   5 C5          -2.3773     1.6328    -0.5270 C.2          1    LIG   0.0000
   6 C6          -1.0826     2.2595    -0.3380 C.2          1    LIG   0.0000
   7 O7          -0.9527     3.4372    -0.5282 O.2          1    LIG   0.0000
   8 N8           0.0146     1.4907     0.0659 N.am         1    LIG   0.0000
   9 C9           1.3128     2.1595     0.2478 C.3          1    LIG   0.0000
  10 C10          2.1248     1.5105     1.3598 C.3          1    LIG   0.0000
  11 N11          2.1168     0.0412     1.2706 N.3          1    LIG   0.0000
  12 C12          2.8849    -0.4673     2.4166 C.3          1    LIG   0.0000
  13 N13          4.3091    -0.1548     2.2294 N.am         1    LIG   0.0000
  14 C14          5.2353    -0.9701     1.5816 C.2          1    LIG   0.0000
  15 O15          4.9951    -2.0517     1.0671 O.2          1    LIG   0.0000
  16 C16          6.5882    -0.2868     1.6148 C.3          1    LIG   0.0000
  17 C17          7.5103    -1.1150     2.4951 C.ar         1    LIG   0.0000
  18 C18          8.5550    -1.8289     1.9174 C.ar         1    LIG   0.0000
  19 C19          9.3934    -2.5847     2.7301 C.ar         1    LIG   0.0000
  20 C20          9.1830    -2.6208     4.1052 C.ar         1    LIG   0.0000
  21 C21          8.1358    -1.9035     4.6744 C.ar         1    LIG   0.0000
  22 C22          7.2922    -1.1456     3.8686 C.ar         1    LIG   0.0000
  23 N23          6.2922     0.9709     2.3066 N.am         1    LIG   0.0000
  24 C24          7.2690     2.0359     2.5782 C.3          1    LIG   0.0000
  25 C25          8.0957     1.6660     3.7992 C.ar         1    LIG   0.0000
  26 C26          7.6664     2.0539     5.0642 C.ar         1    LIG   0.0000
  27 C27          8.4292     1.7118     6.1758 C.ar         1    LIG   0.0000
  28 C28          9.6076     0.9890     6.0159 C.ar         1    LIG   0.0000
  29 C29         10.0292     0.6050     4.7471 C.ar         1    LIG   0.0000
  30 C30          9.2724     0.9437     3.6299 C.ar         1    LIG   0.0000
  31 C31          4.9443     1.0069     2.6642 C.2          1    LIG   0.0000
  32 O32          4.3997     1.9207     3.2624 O.2          1    LIG   0.0000
  33 C33          0.7393    -0.4586     1.4129 C.3          1    LIG   0.0000
  34 C34         -0.1742     0.0510     0.3077 C.3          1    LIG   0.0000
  35 S35         -2.6891     0.3780    -1.6345 S.3          1    LIG   0.0000
  36 H            6.9642    -0.1399     0.6999 H            1    LIG   0.0000
  37 H           -6.2222    -0.6560    -1.5033 H            1    LIG   0.0000
  38 H           -5.3630    -0.6056    -2.8911 H            1    LIG   0.0000
  39 H           -4.9975    -1.7090    -1.7440 H            1    LIG   0.0000
  40 H           -5.5446     1.2184     0.0853 H            1    LIG   0.0000
  41 H           -3.6126     2.6346     0.8283 H            1    LIG   0.0000
  42 H            1.1540     3.1193     0.4793 H            1    LIG   0.0000
  43 H            1.8294     2.1038    -0.6066 H            1    LIG   0.0000
  44 H            3.0699     1.8316     1.2977 H            1    LIG   0.0000
  45 H            1.7379     1.7816     2.2412 H            1    LIG   0.0000
  46 H            2.5564    -0.0349     3.2563 H            1    LIG   0.0000
  47 H            2.7670    -1.4580     2.4837 H            1    LIG   0.0000
  48 H            8.7017    -1.7992     0.9286 H            1    LIG   0.0000
  49 H           10.1477    -3.1023     2.3261 H            1    LIG   0.0000
  50 H            9.7874    -3.1650     4.6870 H            1    LIG   0.0000
  51 H            7.9894    -1.9326     5.6632 H            1    LIG   0.0000
  52 H            6.5374    -0.6285     4.2722 H            1    LIG   0.0000
  53 H            6.7866     2.8949     2.7500 H            1    LIG   0.0000
  54 H            7.8720     2.1447     1.7879 H            1    LIG   0.0000
  55 H            6.8186     2.5730     5.1732 H            1    LIG   0.0000
  56 H            8.1308     1.9853     7.0902 H            1    LIG   0.0000
  57 H           10.1539     0.7445     6.8170 H            1    LIG   0.0000
  58 H           10.8766     0.0853     4.6380 H            1    LIG   0.0000
  59 H            9.5710     0.6709     2.7154 H            1    LIG   0.0000
  60 H            0.3768    -0.1573     2.2948 H            1    LIG   0.0000
  61 H            0.7546    -1.4580     1.3827 H            1    LIG   0.0000
  62 H            0.0270    -0.4482    -0.5351 H            1    LIG   0.0000
  63 H           -1.1248    -0.1112     0.5723 H            1    LIG   0.0000
@<TRIPOS>BOND
   1        1        2 1
   2        2        3 2
   3        3        4 1
   4        4        5 2
   5        5        6 1
   6        6        7 2
   7        6        8 am
   8        8        9 1
   9        9       10 1
  10       10       11 1
  11       11       12 1
  12       12       13 1
  13       13       14 am
  14       14       15 2
  15       14       16 1
  16       16       17 1
  17       17       18 ar
  18       18       19 ar
  19       19       20 ar
  20       20       21 ar
  21       21       22 ar
  22       22       17 ar
  23       16       23 1
  24       23       24 1
  25       24       25 1
  26       25       26 ar
  27       26       27 ar
  28       27       28 ar
  29       28       29 ar
  30       29       30 ar
  31       30       25 ar
  32       23       31 am
  33       31       13 am
  34       31       32 2
  35       11       33 1
  36       33       34 1
  37       34        8 1
  38        5       35 1
  39       35        2 1
  40       16       36 1
  41        1       37 1
  42        1       38 1
  43        1       39 1
  44        3       40 1
  45        4       41 1
  46        9       42 1
  47        9       43 1
  48       10       44 1
  49       10       45 1
  50       12       46 1
  51       12       47 1
  52       18       48 1
  53       19       49 1
  54       20       50 1
  55       21       51 1
  56       22       52 1
  57       24       53 1
  58       24       54 1
  59       26       55 1
  60       27       56 1
  61       28       57 1
  62       29       58 1
  63       30       59 1
  64       33       60 1
  65       33       61 1
  66       34       62 1
  67       34       63 1

@<TRIPOS>MOLECULE

  63   67
SMALL
USER_CHARGES
@<TRIPOS>ATOM
   1 C1          -0.1505     7.6060     0.0155 C.3          1    LIG   0.0000
   2 C2          -0.4863     6.1793    -0.3871 C.2          1    LIG   0.0000
   3 C3          -0.8992     5.7537    -1.6119 C.2          1    LIG   0.0000
   4 C4          -1.1504     4.3585    -1.7298 C.2          1    LIG   0.0000
   5 C5          -0.9255     3.6832    -0.5679 C.2          1    LIG   0.0000
   6 C6          -1.0826     2.2595    -0.3380 C.2          1    LIG   0.0000
   7 O7          -2.1535     1.7411    -0.4943 O.2          1    LIG   0.0000
   8 N8           0.0146     1.4907     0.0659 N.am         1    LIG   0.0000
   9 C9           1.3128     2.1595     0.2478 C.3          1    LIG   0.0000
  10 C10          2.1248     1.5105     1.3598 C.3          1    LIG   0.0000
  11 N11          2.1168     0.0412     1.2706 N.3          1    LIG   0.0000
  12 C12          2.8849    -0.4673     2.4166 C.3          1    LIG   0.0000
  13 N13          4.3091    -0.1548     2.2294 N.am         1    LIG   0.0000
  14 C14          5.2353    -0.9701     1.5816 C.2          1    LIG   0.0000
  15 O15          4.9951    -2.0517     1.0671 O.2          1    LIG   0.0000
  16 C16          6.5882    -0.2868     1.6148 C.3          1    LIG   0.0000
  17 C17          7.5103    -1.1150     2.4951 C.ar         1    LIG   0.0000
  18 C18          8.5550    -1.8289     1.9174 C.ar         1    LIG   0.0000
  19 C19          9.3934    -2.5847     2.7301 C.ar         1    LIG   0.0000
  20 C20          9.1830    -2.6208     4.1052 C.ar         1    LIG   0.0000
  21 C21          8.1358    -1.9035     4.6744 C.ar         1    LIG   0.0000
  22 C22          7.2922    -1.1456     3.8686 C.ar         1    LIG   0.0000
  23 N23          6.2922     0.9709     2.3066 N.am         1    LIG   0.0000
  24 C24          7.2690     2.0359     2.5782 C.3          1    LIG   0.0000
  25 C25          8.0957     1.6660     3.7992 C.ar         1    LIG   0.0000
  26 C26          7.6664     2.0539     5.0642 C.ar         1    LIG   0.0000
  27 C27          8.4292     1.7118     6.1758 C.ar         1    LIG   0.0000
  28 C28          9.6076     0.9890     6.0159 C.ar         1    LIG   0.0000
  29 C29         10.0292     0.6050     4.7471 C.ar         1    LIG   0.0000
  30 C30          9.2724     0.9437     3.6299 C.ar         1    LIG   0.0000
  31 C31          4.9443     1.0069     2.6642 C.2          1    LIG   0.0000
  32 O32          4.3997     1.9207     3.2624 O.2          1    LIG   0.0000
  33 C33          0.7393    -0.4586     1.4129 C.3          1    LIG   0.0000
  34 C34         -0.1742     0.0510     0.3077 C.3          1    LIG   0.0000
  35 S35         -0.4174     4.8005     0.6119 S.3          1    LIG   0.0000
  36 H            6.9642    -0.1399     0.6999 H            1    LIG   0.0000
  37 H           -0.2785     8.2127    -0.7690 H            1    LIG   0.0000
  38 H           -0.7529     7.8927     0.7604 H            1    LIG   0.0000
  39 H            0.8010     7.6512     0.3201 H            1    LIG   0.0000
  40 H           -1.0186     6.3821    -2.3806 H            1    LIG   0.0000
  41 H           -1.4588     3.9206    -2.5743 H            1    LIG   0.0000
  42 H            1.1540     3.1193     0.4793 H            1    LIG   0.0000
  43 H            1.8294     2.1038    -0.6066 H            1    LIG   0.0000
  44 H            3.0699     1.8316     1.2977 H            1    LIG   0.0000
  45 H            1.7379     1.7816     2.2412 H            1    LIG   0.0000
  46 H            2.5564    -0.0349     3.2563 H            1    LIG   0.0000
  47 H            2.7670    -1.4580     2.4837 H            1    LIG   0.0000
  48 H            8.7017    -1.7992     0.9286 H            1    LIG   0.0000
  49 H           10.1477    -3.1023     2.3261 H            1    LIG   0.0000
  50 H            9.7874    -3.1650     4.6870 H            1    LIG   0.0000
  51 H            7.9894    -1.9326     5.6632 H            1    LIG   0.0000
  52 H            6.5374    -0.6285     4.2722 H            1    LIG   0.0000
  53 H            6.7866     2.8949     2.7500 H            1    LIG   0.0000
  54 H            7.8720     2.1447     1.7879 H            1    LIG   0.0000
  55 H            6.8186     2.5730     5.1732 H            1    LIG   0.0000
  56 H            8.1308     1.9853     7.0902 H            1    LIG   0.0000
  57 H           10.1539     0.7445     6.8170 H            1    LIG   0.0000
  58 H           10.8766     0.0853     4.6380 H            1    LIG   0.0000
  59 H            9.5710     0.6709     2.7154 H            1    LIG   0.0000
  60 H            0.3768    -0.1573     2.2948 H            1    LIG   0.0000
  61 H            0.7546    -1.4580     1.3827 H            1    LIG   0.0000
  62 H            0.0270    -0.4482    -0.5351 H            1    LIG   0.0000
  63 H           -1.1248    -0.1112     0.5723 H            1    LIG   0.0000
@<TRIPOS>BOND
   1        1        2 1
   2        2        3 2
   3        3        4 1
   4        4        5 2
   5        5        6 1
   6        6        7 2
   7        6        8 am
   8        8        9 1
   9        9       10 1
  10       10       11 1
  11       11       12 1
  12       12       13 1
  13       13       14 am
  14       14       15 2
  15       14       16 1
  16       16       17 1
  17       17       18 ar
  18       18       19 ar
  19       19       20 ar
  20       20       21 ar
  21       21       22 ar
  22       22       17 ar
  23       16       23 1
  24       23       24 1
  25       24       25 1
  26       25       26 ar
  27       26       27 ar
  28       27       28 ar
  29       28       29 ar
  30       29       30 ar
  31       30       25 ar
  32       23       31 am
  33       31       13 am
  34       31       32 2
  35       11       33 1
  36       33       34 1
  37       34        8 1
  38        5       35 1
  39       35        2 1
  40       16       36 1
  41        1       37 1
  42        1       38 1
  43        1       39 1
  44        3       40 1
  45        4       41 1
  46        9       42 1
  47        9       43 1
  48       10       44 1
  49       10       45 1
  50       12       46 1
  51       12       47 1
  52       18       48 1
  53       19       49 1
  54       20       50 1
  55       21       51 1
  56       22       52 1
  57       24       53 1
  58       24       54 1
  59       26       55 1
  60       27       56 1
  61       28       57 1
  62       29       58 1
  63       30       59 1
  64       33       60 1
  65       33       61 1
  66       34       62 1
  67       34       63 1

@<TRIPOS>MOLECULE

  63   67
SMALL
USER_CHARGES
@<TRIPOS>ATOM
   1 C1          -5.3149    -0.7747    -1.9066 C.3          1    LIG   0.0000
   2 C2          -4.3451     0.2077    -1.2706 C.2          1    LIG   0.0000
   3 C3          -4.6277     1.1208    -0.3019 C.2          1    LIG   0.0000
   4 C4          -3.5368     1.9275     0.1252 C.2          1    LIG   0.0000
   5 C5          -2.3773     1.6328    -0.5270 C.2          1    LIG   0.0000
   6 C6          -1.0826     2.2595    -0.3380 C.2          1    LIG   0.0000
   7 O7          -0.9527     3.4372    -0.5282 O.2          1    LIG   0.0000
   8 N8           0.0146     1.4907     0.0659 N.am         1    LIG   0.0000
   9 C9           1.3128     2.1595     0.2478 C.3          1    LIG   0.0000
  10 C10          2.1248     1.5105     1.3598 C.3          1    LIG   0.0000
  11 N11          2.1168     0.0412     1.2706 N.3          1    LIG   0.0000
  12 C12          2.8849    -0.4673     2.4166 C.3          1    LIG   0.0000
  13 N13          4.3091    -0.1548     2.2294 N.am         1    LIG   0.0000
  14 C14          5.2353    -0.9701     1.5816 C.2          1    LIG   0.0000
  15 O15          4.9951    -2.0517     1.0671 O.2          1    LIG   0.0000
  16 C16          6.5882    -0.2868     1.6148 C.3          1    LIG   0.0000
  17 C17          7.5103    -1.1150     2.4951 C.ar         1    LIG   0.0000
  18 C18          8.5550    -1.8289     1.9174 C.ar         1    LIG   0.0000
  19 C19          9.3934    -2.5847     2.7301 C.ar         1    LIG   0.0000
  20 C20          9.1830    -2.6208     4.1052 C.ar         1    LIG   0.0000
  21 C21          8.1358    -1.9035     4.6744 C.ar         1    LIG   0.0000
  22 C22          7.2922    -1.1456     3.8686 C.ar         1    LIG   0.0000
  23 N23          6.2922     0.9709     2.3066 N.am         1    LIG   0.0000
  24 C24          7.2690     2.0359     2.5782 C.3          1    LIG   0.0000
  25 C25          7.4710     2.8703     1.3235 C.ar         1    LIG   0.0000
  26 C26          8.4588     2.5135     0.4115 C.ar         1    LIG   0.0000
  27 C27          8.6373     3.2829    -0.7334 C.ar         1    LIG   0.0000
  28 C28          7.8321     4.3957    -0.9570 C.ar         1    LIG   0.0000
  29 C29          6.8465     4.7450    -0.0397 C.ar         1    LIG   0.0000
  30 C30          6.6618     3.9812     1.1084 C.ar         1    LIG   0.0000
  31 C31          4.9443     1.0069     2.6642 C.2          1    LIG   0.0000
  32 O32          4.3997     1.9207     3.2624 O.2          1    LIG   0.0000
  33 C33          0.7393    -0.4586     1.4129 C.3          1    LIG   0.0000
  34 C34         -0.1742     0.0510     0.3077 C.3          1    LIG   0.0000
  35 S35         -2.6891     0.3780    -1.6345 S.3          1    LIG   0.0000
  36 H            6.9642    -0.1399     0.6999 H            1    LIG   0.0000
  37 H           -6.2222    -0.6560    -1.5033 H            1    LIG   0.0000
  38 H           -5.3630    -0.6056    -2.8911 H            1    LIG   0.0000
  39 H           -4.9975    -1.7090    -1.7440 H            1    LIG   0.0000
  40 H           -5.5446     1.2184     0.0853 H            1    LIG   0.0000
  41 H           -3.6126     2.6346     0.8283 H            1    LIG   0.0000
  42 H            1.1540     3.1193     0.4793 H            1    LIG   0.0000
  43 H            1.8294     2.1038    -0.6066 H            1    LIG   0.0000
  44 H            3.0699     1.8316     1.2977 H            1    LIG   0.0000
  45 H            1.7379     1.7816     2.2412 H            1    LIG   0.0000
  46 H            2.5564    -0.0349     3.2563 H            1    LIG   0.0000
  47 H            2.7670    -1.4580     2.4837 H            1    LIG   0.0000
  48 H            8.7017    -1.7992     0.9286 H            1    LIG   0.0000
  49 H           10.1477    -3.1023     2.3261 H            1    LIG   0.0000
  50 H            9.7874    -3.1650     4.6870 H            1    LIG   0.0000
  51 H            7.9894    -1.9326     5.6632 H            1    LIG   0.0000
  52 H            6.5374    -0.6285     4.2722 H            1    LIG   0.0000
  53 H            8.1402     1.6276     2.8508 H            1    LIG   0.0000
  54 H            6.9293     2.6197     3.3156 H            1    LIG   0.0000
  55 H            9.0344     1.7127     0.5771 H            1    LIG   0.0000
  56 H            9.3444     3.0363    -1.3961 H            1    LIG   0.0000
  57 H            7.9628     4.9469    -1.7811 H            1    LIG   0.0000
  58 H            6.2704     5.5454    -0.2055 H            1    LIG   0.0000
  59 H            5.9553     4.2280     1.7716 H            1    LIG   0.0000
  60 H            0.3768    -0.1573     2.2948 H            1    LIG   0.0000
  61 H            0.7546    -1.4580     1.3827 H            1    LIG   0.0000
  62 H            0.0270    -0.4482    -0.5351 H            1    LIG   0.0000
  63 H           -1.1248    -0.1112     0.5723 H            1    LIG   0.0000
@<TRIPOS>BOND
   1        1        2 1
   2        2        3 2
   3        3        4 1
   4        4        5 2
   5        5        6 1
   6        6        7 2
   7        6        8 am
   8        8        9 1
   9        9       10 1
  10       10       11 1
  11       11       12 1
  12       12       13 1
  13       13       14 am
  14       14       15 2
  15       14       16 1
  16       16       17 1
  17       17       18 ar
  18       18       19 ar
  19       19       20 ar
  20       20       21 ar
  21       21       22 ar
  22       22       17 ar
  23       16       23 1
  24       23       24 1
  25       24       25 1
  26       25       26 ar
  27       26       27 ar
  28       27       28 ar
  29       28       29 ar
  30       29       30 ar
  31       30       25 ar
  32       23       31 am
  33       31       13 am
  34       31       32 2
  35       11       33 1
  36       33       34 1
  37       34        8 1
  38        5       35 1
  39       35        2 1
  40       16       36 1
  41        1       37 1
  42        1       38 1
  43        1       39 1
  44        3       40 1
  45        4       41 1
  46        9       42 1
  47        9       43 1
  48       10       44 1
  49       10       45 1
  50       12       46 1
  51       12       47 1
  52       18       48 1
  53       19       49 1
  54       20       50 1
  55       21       51 1
  56       22       52 1
  57       24       53 1
  58       24       54 1
  59       26       55 1
  60       27       56 1
  61       28       57 1
  62       29       58 1
  63       30       59 1
  64       33       60 1
  65       33       61 1
  66       34       62 1
  67       34       63 1

@<TRIPOS>MOLECULE

  63   67
SMALL
USER_CHARGES
@<TRIPOS>ATOM
   1 C1          -0.1505     7.6060     0.0155 C.3          1    LIG   0.0000
   2 C2          -0.4863     6.1793    -0.3871 C.2          1    LIG   0.0000
   3 C3          -0.8992     5.7537    -1.6119 C.2          1    LIG   0.0000
   4 C4          -1.1504     4.3585    -1.7298 C.2          1    LIG   0.0000
   5 C5          -0.9255     3.6832    -0.5679 C.2          1    LIG   0.0000
   6 C6          -1.0826     2.2595    -0.3380 C.2          1    LIG   0.0000
   7 O7          -2.1535     1.7411    -0.4943 O.2          1    LIG   0.0000
   8 N8           0.0146     1.4907     0.0659 N.am         1    LIG   0.0000
   9 C9           1.3128     2.1595     0.2478 C.3          1    LIG   0.0000
  10 C10          2.1248     1.5105     1.3598 C.3          1    LIG   0.0000
  11 N11          2.1168     0.0412     1.2706 N.3          1    LIG   0.0000
  12 C12          2.8849    -0.4673     2.4166 C.3          1    LIG   0.0000
  13 N13          4.3091    -0.1548     2.2294 N.am         1    LIG   0.0000
  14 C14          5.2353    -0.9701     1.5816 C.2          1    LIG   0.0000
  15 O15          4.9951    -2.0517     1.0671 O.2          1    LIG   0.0000
  16 C16          6.5882    -0.2868     1.6148 C.3          1    LIG   0.0000
  17 C17          7.5103    -1.1150     2.4951 C.ar         1    LIG   0.0000
  18 C18          8.5550    -1.8289     1.9174 C.ar         1    LIG   0.0000
  19 C19          9.3934    -2.5847     2.7301 C.ar         1    LIG   0.0000
  20 C20          9.1830    -2.6208     4.1052 C.ar         1    LIG   0.0000
  21 C21          8.1358    -1.9035     4.6744 C.ar         1    LIG   0.0000
  22 C22          7.2922    -1.1456     3.8686 C.ar         1    LIG   0.0000
  23 N23          6.2922     0.9709     2.3066 N.am         1    LIG   0.0000
  24 C24          7.2690     2.0359     2.5782 C.3          1    LIG   0.0000
  25 C25          7.4710     2.8703     1.3235 C.ar         1    LIG   0.0000
  26 C26          8.4588     2.5135     0.4115 C.ar         1    LIG   0.0000
  27 C27          8.6373     3.2829    -0.7334 C.ar         1    LIG   0.0000
  28 C28          7.8321     4.3957    -0.9570 C.ar         1    LIG   0.0000
  29 C29          6.8465     4.7450    -0.0397 C.ar         1    LIG   0.0000
  30 C30          6.6618     3.9812     1.1084 C.ar         1    LIG   0.0000
  31 C31          4.9443     1.0069     2.6642 C.2          1    LIG   0.0000
  32 O32          4.3997     1.9207     3.2624 O.2          1    LIG   0.0000
  33 C33          0.7393    -0.4586     1.4129 C.3          1    LIG   0.0000
  34 C34         -0.1742     0.0510     0.3077 C.3          1    LIG   0.0000
  35 S35         -0.4174     4.8005     0.6119 S.3          1    LIG   0.0000
  36 H            6.9642    -0.1399     0.6999 H            1    LIG   0.0000
  37 H           -0.2785     8.2127    -0.7690 H            1    LIG   0.0000
  38 H           -0.7529     7.8927     0.7604 H            1    LIG   0.0000
  39 H            0.8010     7.6512     0.3201 H            1    LIG   0.0000
  40 H           -1.0186     6.3821    -2.3806 H            1    LIG   0.0000
  41 H           -1.4588     3.9206    -2.5743 H            1    LIG   0.0000
  42 H            1.1540     3.1193     0.4793 H            1    LIG   0.0000
  43 H            1.8294     2.1038    -0.6066 H            1    LIG   0.0000
  44 H            3.0699     1.8316     1.2977 H            1    LIG   0.0000
  45 H            1.7379     1.7816     2.2412 H            1    LIG   0.0000
  46 H            2.5564    -0.0349     3.2563 H            1    LIG   0.0000
  47 H            2.7670    -1.4580     2.4837 H            1    LIG   0.0000
  48 H            8.7017    -1.7992     0.9286 H            1    LIG   0.0000
  49 H           10.1477    -3.1023     2.3261 H            1    LIG   0.0000
  50 H            9.7874    -3.1650     4.6870 H            1    LIG   0.0000
  51 H            7.9894    -1.9326     5.6632 H            1    LIG   0.0000
  52 H            6.5374    -0.6285     4.2722 H            1    LIG   0.0000
  53 H            8.1402     1.6276     2.8508 H            1    LIG   0.0000
  54 H            6.9293     2.6197     3.3156 H            1    LIG   0.0000
  55 H            9.0344     1.7127     0.5771 H            1    LIG   0.0000
  56 H            9.3444     3.0363    -1.3961 H            1    LIG   0.0000
  57 H            7.9628     4.9469    -1.7811 H            1    LIG   0.0000
  58 H            6.2704     5.5454    -0.2055 H            1    LIG   0.0000
  59 H            5.9553     4.2280     1.7716 H            1    LIG   0.0000
  60 H            0.3768    -0.1573     2.2948 H            1    LIG   0.0000
  61 H            0.7546    -1.4580     1.3827 H            1    LIG   0.0000
  62 H            0.0270    -0.4482    -0.5351 H            1    LIG   0.0000
  63 H           -1.1248    -0.1112     0.5723 H            1    LIG   0.0000
@<TRIPOS>BOND
   1        1        2 1
   2        2        3 2
   3        3        4 1
   4        4        5 2
   5        5        6 1
   6        6        7 2
   7        6        8 am
   8        8        9 1
   9        9       10 1
  10       10       11 1
  11       11       12 1
  12       12       13 1
  13       13       14 am
  14       14       15 2
  15       14       16 1
  16       16       17 1
  17       17       18 ar
  18       18       19 ar
  19       19       20 ar
  20       20       21 ar
  21       21       22 ar
  22       22       17 ar
  23       16       23 1
  24       23       24 1
  25       24       25 1
  26       25       26 ar
  27       26       27 ar
  28       27       28 ar
  29       28       29 ar
  30       29       30 ar
  31       30       25 ar
  32       23       31 am
  33       31       13 am
  34       31       32 2
  35       11       33 1
  36       33       34 1
  37       34        8 1
  38        5       35 1
  39       35        2 1
  40       16       36 1
  41        1       37 1
  42        1       38 1
  43        1       39 1
  44        3       40 1
  45        4       41 1
  46        9       42 1
  47        9       43 1
  48       10       44 1
  49       10       45 1
  50       12       46 1
  51       12       47 1
  52       18       48 1
  53       19       49 1
  54       20       50 1
  55       21       51 1
  56       22       52 1
  57       24       53 1
  58       24       54 1
  59       26       55 1
  60       27       56 1
  61       28       57 1
  62       29       58 1
  63       30       59 1
  64       33       60 1
  65       33       61 1
  66       34       62 1
  67       34       63 1

@<TRIPOS>MOLECULE

  63   67
SMALL
USER_CHARGES
@<TRIPOS>ATOM
   1 C1          -0.1505     7.6060     0.0155 C.3          1    LIG   0.0000
   2 C2          -0.4863     6.1793    -0.3871 C.2          1    LIG   0.0000
   3 C3          -0.8992     5.7537    -1.6119 C.2          1    LIG   0.0000
   4 C4          -1.1504     4.3585    -1.7298 C.2          1    LIG   0.0000
   5 C5          -0.9255     3.6832    -0.5679 C.2          1    LIG   0.0000
   6 C6          -1.0826     2.2595    -0.3380 C.2          1    LIG   0.0000
   7 O7          -2.1535     1.7411    -0.4943 O.2          1    LIG   0.0000
   8 N8           0.0146     1.4907     0.0659 N.am         1    LIG   0.0000
   9 C9           1.3128     2.1595     0.2478 C.3          1    LIG   0.0000
  10 C10          2.1248     1.5105     1.3598 C.3          1    LIG   0.0000
  11 N11          2.1168     0.0412     1.2706 N.3          1    LIG   0.0000
  12 C12          2.8849    -0.4673     2.4166 C.3          1    LIG   0.0000
  13 N13          2.1311    -0.2295     3.6560 N.am         1    LIG   0.0000
  14 C14          1.2203    -1.1154     4.2286 C.2          1    LIG   0.0000
  15 O15          0.9278    -2.2179     3.7913 O.2          1    LIG   0.0000
  16 C16          0.6596    -0.4859     5.4886 C.3          1    LIG   0.0000
  17 C17         -0.8157    -0.2028     5.2548 C.ar         1    LIG   0.0000
  18 C18         -1.7753    -0.9558     5.9234 C.ar         1    LIG   0.0000
  19 C19         -3.1227    -0.6906     5.7030 C.ar         1    LIG   0.0000
  20 C20         -3.4987     0.3189     4.8221 C.ar         1    LIG   0.0000
  21 C21         -2.5323     1.0672     4.1579 C.ar         1    LIG   0.0000
  22 C22         -1.1823     0.8080     4.3722 C.ar         1    LIG   0.0000
  23 N23          1.3735     0.7926     5.5500 N.am         1    LIG   0.0000
  24 C24          1.2221     1.7945     6.6157 C.3          1    LIG   0.0000
  25 C25         -0.0343     2.6134     6.3666 C.ar         1    LIG   0.0000
  26 C26          0.0407     3.7736     5.6030 C.ar         1    LIG   0.0000
  27 C27         -1.1136     4.5172     5.3807 C.ar         1    LIG   0.0000
  28 C28         -2.3263     4.0982     5.9195 C.ar         1    LIG   0.0000
  29 C29         -2.3920     2.9364     6.6817 C.ar         1    LIG   0.0000
  30 C30         -1.2421     2.1872     6.9094 C.ar         1    LIG   0.0000
  31 C31          2.2205     0.9135     4.4483 C.2          1    LIG   0.0000
  32 O32          2.9381     1.8727     4.2148 O.2          1    LIG   0.0000
  33 C33          0.7393    -0.4586     1.4129 C.3          1    LIG   0.0000
  34 C34         -0.1742     0.0510     0.3077 C.3          1    LIG   0.0000
  35 S35         -0.4174     4.8005     0.6119 S.3          1    LIG   0.0000
  36 H            0.8162    -1.0499     6.2994 H            1    LIG   0.0000
  37 H           -0.2785     8.2127    -0.7690 H            1    LIG   0.0000
  38 H           -0.7529     7.8927     0.7604 H            1    LIG   0.0000
  39 H            0.8010     7.6512     0.3201 H            1    LIG   0.0000
  40 H           -1.0186     6.3821    -2.3806 H            1    LIG   0.0000
  41 H           -1.4588     3.9206    -2.5743 H            1    LIG   0.0000
  42 H            1.1540     3.1193     0.4793 H            1    LIG   0.0000
  43 H            1.8294     2.1038    -0.6066 H            1    LIG   0.0000
  44 H            3.0699     1.8316     1.2977 H            1    LIG   0.0000
  45 H            1.7379     1.7816     2.2412 H            1    LIG   0.0000
  46 H            3.0408    -1.4486     2.3043 H            1    LIG   0.0000
  47 H            3.7642     0.0065     2.4652 H            1    LIG   0.0000
  48 H           -1.4994    -1.6799     6.5555 H            1    LIG   0.0000
  49 H           -3.8216    -1.2255     6.1778 H            1    LIG   0.0000
  50 H           -4.4683     0.5073     4.6657 H            1    LIG   0.0000
  51 H           -2.8080     1.7918     3.5263 H            1    LIG   0.0000
  52 H           -0.4832     1.3423     3.8969 H            1    LIG   0.0000
  53 H            2.0186     2.3991     6.6203 H            1    LIG   0.0000
  54 H            1.1491     1.3325     7.4996 H            1    LIG   0.0000
  55 H            0.9148     4.0699     5.2181 H            1    LIG   0.0000
  56 H           -1.0720     5.3532     4.8336 H            1    LIG   0.0000
  57 H           -3.1545     4.6349     5.7579 H            1    LIG   0.0000
  58 H           -3.2662     2.6396     7.0661 H            1    LIG   0.0000
  59 H           -1.2833     1.3516     7.4571 H            1    LIG   0.0000
  60 H            0.3768    -0.1573     2.2948 H            1    LIG   0.0000
  61 H            0.7546    -1.4580     1.3827 H            1    LIG   0.0000
  62 H            0.0270    -0.4482    -0.5351 H            1    LIG   0.0000
  63 H           -1.1248    -0.1112     0.5723 H            1    LIG   0.0000
@<TRIPOS>BOND
   1        1        2 1
   2        2        3 2
   3        3        4 1
   4        4        5 2
   5        5        6 1
   6        6        7 2
   7        6        8 am
   8        8        9 1
   9        9       10 1
  10       10       11 1
  11       11       12 1
  12       12       13 1
  13       13       14 am
  14       14       15 2
  15       14       16 1
  16       16       17 1
  17       17       18 ar
  18       18       19 ar
  19       19       20 ar
  20       20       21 ar
  21       21       22 ar
  22       22       17 ar
  23       16       23 1
  24       23       24 1
  25       24       25 1
  26       25       26 ar
  27       26       27 ar
  28       27       28 ar
  29       28       29 ar
  30       29       30 ar
  31       30       25 ar
  32       23       31 am
  33       31       13 am
  34       31       32 2
  35       11       33 1
  36       33       34 1
  37       34        8 1
  38        5       35 1
  39       35        2 1
  40       16       36 1
  41        1       37 1
  42        1       38 1
  43        1       39 1
  44        3       40 1
  45        4       41 1
  46        9       42 1
  47        9       43 1
  48       10       44 1
  49       10       45 1
  50       12       46 1
  51       12       47 1
  52       18       48 1
  53       19       49 1
  54       20       50 1
  55       21       51 1
  56       22       52 1
  57       24       53 1
  58       24       54 1
  59       26       55 1
  60       27       56 1
  61       28       57 1
  62       29       58 1
  63       30       59 1
  64       33       60 1
  65       33       61 1
  66       34       62 1
  67       34       63 1

@<TRIPOS>MOLECULE

  63   67
SMALL
USER_CHARGES
@<TRIPOS>ATOM
   1 C1          -0.1505     7.6060     0.0155 C.3          1    LIG   0.0000
   2 C2          -0.4863     6.1793    -0.3871 C.2          1    LIG   0.0000
   3 C3          -0.8992     5.7537    -1.6119 C.2          1    LIG   0.0000
   4 C4          -1.1504     4.3585    -1.7298 C.2          1    LIG   0.0000
   5 C5          -0.9255     3.6832    -0.5679 C.2          1    LIG   0.0000
   6 C6          -1.0826     2.2595    -0.3380 C.2          1    LIG   0.0000
   7 O7          -2.1535     1.7411    -0.4943 O.2          1    LIG   0.0000
   8 N8           0.0146     1.4907     0.0659 N.am         1    LIG   0.0000
   9 C9           1.3128     2.1595     0.2478 C.3          1    LIG   0.0000
  10 C10          2.1248     1.5105     1.3598 C.3          1    LIG   0.0000
  11 N11          2.1168     0.0412     1.2706 N.3          1    LIG   0.0000
  12 C12          2.8849    -0.4673     2.4166 C.3          1    LIG   0.0000
  13 N13          2.1311    -0.2295     3.6560 N.am         1    LIG   0.0000
  14 C14          1.2203    -1.1154     4.2286 C.2          1    LIG   0.0000
  15 O15          0.9278    -2.2179     3.7913 O.2          1    LIG   0.0000
  16 C16          0.6596    -0.4859     5.4886 C.3          1    LIG   0.0000
  17 C17         -0.8157    -0.2028     5.2548 C.ar         1    LIG   0.0000
  18 C18         -1.7753    -0.9558     5.9234 C.ar         1    LIG   0.0000
  19 C19         -3.1227    -0.6906     5.7030 C.ar         1    LIG   0.0000
  20 C20         -3.4987     0.3189     4.8221 C.ar         1    LIG   0.0000
  21 C21         -2.5323     1.0672     4.1579 C.ar         1    LIG   0.0000
  22 C22         -1.1823     0.8080     4.3722 C.ar         1    LIG   0.0000
  23 N23          1.3735     0.7926     5.5500 N.am         1    LIG   0.0000
  24 C24          1.2221     1.7945     6.6157 C.3          1    LIG   0.0000
  25 C25          2.0406     1.3744     7.8260 C.ar         1    LIG   0.0000
  26 C26          1.4588     0.5790     8.8077 C.ar         1    LIG   0.0000
  27 C27          2.2147     0.1999     9.9121 C.ar         1    LIG   0.0000
  28 C28          3.5378     0.6157    10.0262 C.ar         1    LIG   0.0000
  29 C29          4.1115     1.4109     9.0395 C.ar         1    LIG   0.0000
  30 C30          3.3623     1.7951     7.9320 C.ar         1    LIG   0.0000
  31 C31          2.2205     0.9135     4.4483 C.2          1    LIG   0.0000
  32 O32          2.9381     1.8727     4.2148 O.2          1    LIG   0.0000
  33 C33          0.7393    -0.4586     1.4129 C.3          1    LIG   0.0000
  34 C34         -0.1742     0.0510     0.3077 C.3          1    LIG   0.0000
  35 S35         -0.4174     4.8005     0.6119 S.3          1    LIG   0.0000
  36 H            0.8162    -1.0499     6.2994 H            1    LIG   0.0000
  37 H           -0.2785     8.2127    -0.7690 H            1    LIG   0.0000
  38 H           -0.7529     7.8927     0.7604 H            1    LIG   0.0000
  39 H            0.8010     7.6512     0.3201 H            1    LIG   0.0000
  40 H           -1.0186     6.3821    -2.3806 H            1    LIG   0.0000
  41 H           -1.4588     3.9206    -2.5743 H            1    LIG   0.0000
  42 H            1.1540     3.1193     0.4793 H            1    LIG   0.0000
  43 H            1.8294     2.1038    -0.6066 H            1    LIG   0.0000
  44 H            3.0699     1.8316     1.2977 H            1    LIG   0.0000
  45 H            1.7379     1.7816     2.2412 H            1    LIG   0.0000
  46 H            3.0408    -1.4486     2.3043 H            1    LIG   0.0000
  47 H            3.7642     0.0065     2.4652 H            1    LIG   0.0000
  48 H           -1.4994    -1.6799     6.5555 H            1    LIG   0.0000
  49 H           -3.8216    -1.2255     6.1778 H            1    LIG   0.0000
  50 H           -4.4683     0.5073     4.6657 H            1    LIG   0.0000
  51 H           -2.8080     1.7918     3.5263 H            1    LIG   0.0000
  52 H           -0.4832     1.3423     3.8969 H            1    LIG   0.0000
  53 H            0.2583     1.8644     6.8730 H            1    LIG   0.0000
  54 H            1.5446     2.6821     6.2869 H            1    LIG   0.0000
  55 H            0.5076     0.2829     8.7204 H            1    LIG   0.0000
  56 H            1.8071    -0.3716    10.6243 H            1    LIG   0.0000
  57 H            4.0787     0.3416    10.8213 H            1    LIG   0.0000
  58 H            5.0629     1.7065     9.1263 H            1    LIG   0.0000
  59 H            3.7693     2.3672     7.2200 H            1    LIG   0.0000
  60 H            0.3768    -0.1573     2.2948 H            1    LIG   0.0000
  61 H            0.7546    -1.4580     1.3827 H            1    LIG   0.0000
  62 H            0.0270    -0.4482    -0.5351 H            1    LIG   0.0000
  63 H           -1.1248    -0.1112     0.5723 H            1    LIG   0.0000
@<TRIPOS>BOND
   1        1        2 1
   2        2        3 2
   3        3        4 1
   4        4        5 2
   5        5        6 1
   6        6        7 2
   7        6        8 am
   8        8        9 1
   9        9       10 1
  10       10       11 1
  11       11       12 1
  12       12       13 1
  13       13       14 am
  14       14       15 2
  15       14       16 1
  16       16       17 1
  17       17       18 ar
  18       18       19 ar
  19       19       20 ar
  20       20       21 ar
  21       21       22 ar
  22       22       17 ar
  23       16       23 1
  24       23       24 1
  25       24       25 1
  26       25       26 ar
  27       26       27 ar
  28       27       28 ar
  29       28       29 ar
  30       29       30 ar
  31       30       25 ar
  32       23       31 am
  33       31       13 am
  34       31       32 2
  35       11       33 1
  36       33       34 1
  37       34        8 1
  38        5       35 1
  39       35        2 1
  40       16       36 1
  41        1       37 1
  42        1       38 1
  43        1       39 1
  44        3       40 1
  45        4       41 1
  46        9       42 1
  47        9       43 1
  48       10       44 1
  49       10       45 1
  50       12       46 1
  51       12       47 1
  52       18       48 1
  53       19       49 1
  54       20       50 1
  55       21       51 1
  56       22       52 1
  57       24       53 1
  58       24       54 1
  59       26       55 1
  60       27       56 1
  61       28       57 1
  62       29       58 1
  63       30       59 1
  64       33       60 1
  65       33       61 1
  66       34       62 1
  67       34       63 1

@<TRIPOS>MOLECULE

  63   67
SMALL
USER_CHARGES
@<TRIPOS>ATOM
   1 C1          -0.1505     7.6060     0.0155 C.3          1    LIG   0.0000
   2 C2          -0.4863     6.1793    -0.3871 C.2          1    LIG   0.0000
   3 C3          -0.8992     5.7537    -1.6119 C.2          1    LIG   0.0000
   4 C4          -1.1504     4.3585    -1.7298 C.2          1    LIG   0.0000
   5 C5          -0.9255     3.6832    -0.5679 C.2          1    LIG   0.0000
   6 C6          -1.0826     2.2595    -0.3380 C.2          1    LIG   0.0000
   7 O7          -2.1535     1.7411    -0.4943 O.2          1    LIG   0.0000
   8 N8           0.0146     1.4907     0.0659 N.am         1    LIG   0.0000
   9 C9           1.3128     2.1595     0.2478 C.3          1    LIG   0.0000
  10 C10          2.1248     1.5105     1.3598 C.3          1    LIG   0.0000
  11 N11          2.1168     0.0412     1.2706 N.3          1    LIG   0.0000
  12 C12          2.8849    -0.4673     2.4166 C.3          1    LIG   0.0000
  13 N13          2.1311    -0.2295     3.6560 N.am         1    LIG   0.0000
  14 C14          2.2147     0.9173     4.4435 C.2          1    LIG   0.0000
  15 O15          2.9144     1.8913     4.2112 O.2          1    LIG   0.0000
  16 C16          1.2866     0.7573     5.6314 C.3          1    LIG   0.0000
  17 C17          2.1412     0.6700     6.8857 C.ar         1    LIG   0.0000
  18 C18          2.1428     1.7252     7.7921 C.ar         1    LIG   0.0000
  19 C19          2.9282     1.6372     8.9367 C.ar         1    LIG   0.0000
  20 C20          3.7007     0.5027     9.1656 C.ar         1    LIG   0.0000
  21 C21          3.6927    -0.5479     8.2539 C.ar         1    LIG   0.0000
  22 C22          2.9105    -0.4678     7.1061 C.ar         1    LIG   0.0000
  23 N23          0.6829    -0.5560     5.3887 N.am         1    LIG   0.0000
  24 C24         -0.3330    -1.1896     6.2423 C.3          1    LIG   0.0000
  25 C25          0.3422    -1.8252     7.4470 C.ar         1    LIG   0.0000
  26 C26          0.7745    -3.1455     7.3766 C.ar         1    LIG   0.0000
  27 C27          1.3905    -3.7193     8.4837 C.ar         1    LIG   0.0000
  28 C28          1.5691    -2.9741     9.6453 C.ar         1    LIG   0.0000
  29 C29          1.1339    -1.6543     9.7068 C.ar         1    LIG   0.0000
  30 C30          0.5161    -1.0729     8.6041 C.ar         1    LIG   0.0000
  31 C31          1.2139    -1.1114     4.2246 C.2          1    LIG   0.0000
  32 O32          0.9166    -2.2032     3.7672 O.2          1    LIG   0.0000
  33 C33          0.7393    -0.4586     1.4129 C.3          1    LIG   0.0000
  34 C34         -0.1742     0.0510     0.3077 C.3          1    LIG   0.0000
  35 S35         -0.4174     4.8005     0.6119 S.3          1    LIG   0.0000
  36 H            0.6047     1.4870     5.6841 H            1    LIG   0.0000
  37 H           -0.2785     8.2127    -0.7690 H            1    LIG   0.0000
  38 H           -0.7529     7.8927     0.7604 H            1    LIG   0.0000
  39 H            0.8010     7.6512     0.3201 H            1    LIG   0.0000
  40 H           -1.0186     6.3821    -2.3806 H            1    LIG   0.0000
  41 H           -1.4588     3.9206    -2.5743 H            1    LIG   0.0000
  42 H            1.1540     3.1193     0.4793 H            1    LIG   0.0000
  43 H            1.8294     2.1038    -0.6066 H            1    LIG   0.0000
  44 H            3.0699     1.8316     1.2977 H            1    LIG   0.0000
  45 H            1.7379     1.7816     2.2412 H            1    LIG   0.0000
  46 H            3.0408    -1.4486     2.3043 H            1    LIG   0.0000
  47 H            3.7642     0.0065     2.4652 H            1    LIG   0.0000
  48 H            1.5855     2.5380     7.6226 H            1    LIG   0.0000
  49 H            2.9377     2.3896     9.5954 H            1    LIG   0.0000
  50 H            4.2643     0.4423     9.9894 H            1    LIG   0.0000
  51 H            4.2495    -1.3611     8.4235 H            1    LIG   0.0000
  52 H            2.9015    -1.2197     6.4469 H            1    LIG   0.0000
  53 H           -0.8149    -1.8935     5.7204 H            1    LIG   0.0000
  54 H           -0.9861    -0.4986     6.5522 H            1    LIG   0.0000
  55 H            0.6437    -3.6762     6.5392 H            1    LIG   0.0000
  56 H            1.7053    -4.6677     8.4450 H            1    LIG   0.0000
  57 H            2.0124    -3.3894    10.4397 H            1    LIG   0.0000
  58 H            1.2651    -1.1232    10.5439 H            1    LIG   0.0000
  59 H            0.2006    -0.1248     8.6429 H            1    LIG   0.0000
  60 H            0.3768    -0.1573     2.2948 H            1    LIG   0.0000
  61 H            0.7546    -1.4580     1.3827 H            1    LIG   0.0000
  62 H            0.0270    -0.4482    -0.5351 H            1    LIG   0.0000
  63 H           -1.1248    -0.1112     0.5723 H            1    LIG   0.0000
@<TRIPOS>BOND
   1        1        2 1
   2        2        3 2
   3        3        4 1
   4        4        5 2
   5        5        6 1
   6        6        7 2
   7        6        8 am
   8        8        9 1
   9        9       10 1
  10       10       11 1
  11       11       12 1
  12       12       13 1
  13       13       14 am
  14       14       15 2
  15       14       16 1
  16       16       17 1
  17       17       18 ar
  18       18       19 ar
  19       19       20 ar
  20       20       21 ar
  21       21       22 ar
  22       22       17 ar
  23       16       23 1
  24       23       24 1
  25       24       25 1
  26       25       26 ar
  27       26       27 ar
  28       27       28 ar
  29       28       29 ar
  30       29       30 ar
  31       30       25 ar
  32       23       31 am
  33       31       13 am
  34       31       32 2
  35       11       33 1
  36       33       34 1
  37       34        8 1
  38        5       35 1
  39       35        2 1
  40       16       36 1
  41        1       37 1
  42        1       38 1
  43        1       39 1
  44        3       40 1
  45        4       41 1
  46        9       42 1
  47        9       43 1
  48       10       44 1
  49       10       45 1
  50       12       46 1
  51       12       47 1
  52       18       48 1
  53       19       49 1
  54       20       50 1
  55       21       51 1
  56       22       52 1
  57       24       53 1
  58       24       54 1
  59       26       55 1
  60       27       56 1
  61       28       57 1
  62       29       58 1
  63       30       59 1
  64       33       60 1
  65       33       61 1
  66       34       62 1
  67       34       63 1

@<TRIPOS>MOLECULE

  63   67
SMALL
USER_CHARGES
@<TRIPOS>ATOM
   1 C1          -0.1505     7.6060     0.0155 C.3          1    LIG   0.0000
   2 C2          -0.4863     6.1793    -0.3871 C.2          1    LIG   0.0000
   3 C3          -0.8992     5.7537    -1.6119 C.2          1    LIG   0.0000
   4 C4          -1.1504     4.3585    -1.7298 C.2          1    LIG   0.0000
   5 C5          -0.9255     3.6832    -0.5679 C.2          1    LIG   0.0000
   6 C6          -1.0826     2.2595    -0.3380 C.2          1    LIG   0.0000
   7 O7          -2.1535     1.7411    -0.4943 O.2          1    LIG   0.0000
   8 N8           0.0146     1.4907     0.0659 N.am         1    LIG   0.0000
   9 C9           1.3128     2.1595     0.2478 C.3          1    LIG   0.0000
  10 C10          2.1248     1.5105     1.3598 C.3          1    LIG   0.0000
  11 N11          2.1168     0.0412     1.2706 N.3          1    LIG   0.0000
  12 C12          2.8849    -0.4673     2.4166 C.3          1    LIG   0.0000
  13 N13          2.1311    -0.2295     3.6560 N.am         1    LIG   0.0000
  14 C14          2.2147     0.9173     4.4435 C.2          1    LIG   0.0000
  15 O15          2.9144     1.8913     4.2112 O.2          1    LIG   0.0000
  16 C16          1.2866     0.7573     5.6314 C.3          1    LIG   0.0000
  17 C17          2.1412     0.6700     6.8857 C.ar         1    LIG   0.0000
  18 C18          2.1428     1.7252     7.7921 C.ar         1    LIG   0.0000
  19 C19          2.9282     1.6372     8.9367 C.ar         1    LIG   0.0000
  20 C20          3.7007     0.5027     9.1656 C.ar         1    LIG   0.0000
  21 C21          3.6927    -0.5479     8.2539 C.ar         1    LIG   0.0000
  22 C22          2.9105    -0.4678     7.1061 C.ar         1    LIG   0.0000
  23 N23          0.6829    -0.5560     5.3887 N.am         1    LIG   0.0000
  24 C24         -0.3330    -1.1896     6.2423 C.3          1    LIG   0.0000
  25 C25         -1.6980    -0.5972     5.9305 C.ar         1    LIG   0.0000
  26 C26         -2.1391     0.5208     6.6306 C.ar         1    LIG   0.0000
  27 C27         -3.3895     1.0559     6.3394 C.ar         1    LIG   0.0000
  28 C28         -4.1844     0.4735     5.3568 C.ar         1    LIG   0.0000
  29 C29         -3.7351    -0.6443     4.6614 C.ar         1    LIG   0.0000
  30 C30         -2.4859    -1.1862     4.9470 C.ar         1    LIG   0.0000
  31 C31          1.2139    -1.1114     4.2246 C.2          1    LIG   0.0000
  32 O32          0.9166    -2.2032     3.7672 O.2          1    LIG   0.0000
  33 C33          0.7393    -0.4586     1.4129 C.3          1    LIG   0.0000
  34 C34         -0.1742     0.0510     0.3077 C.3          1    LIG   0.0000
  35 S35         -0.4174     4.8005     0.6119 S.3          1    LIG   0.0000
  36 H            0.6047     1.4870     5.6841 H            1    LIG   0.0000
  37 H           -0.2785     8.2127    -0.7690 H            1    LIG   0.0000
  38 H           -0.7529     7.8927     0.7604 H            1    LIG   0.0000
  39 H            0.8010     7.6512     0.3201 H            1    LIG   0.0000
  40 H           -1.0186     6.3821    -2.3806 H            1    LIG   0.0000
  41 H           -1.4588     3.9206    -2.5743 H            1    LIG   0.0000
  42 H            1.1540     3.1193     0.4793 H            1    LIG   0.0000
  43 H            1.8294     2.1038    -0.6066 H            1    LIG   0.0000
  44 H            3.0699     1.8316     1.2977 H            1    LIG   0.0000
  45 H            1.7379     1.7816     2.2412 H            1    LIG   0.0000
  46 H            3.0408    -1.4486     2.3043 H            1    LIG   0.0000
  47 H            3.7642     0.0065     2.4652 H            1    LIG   0.0000
  48 H            1.5855     2.5380     7.6226 H            1    LIG   0.0000
  49 H            2.9377     2.3896     9.5954 H            1    LIG   0.0000
  50 H            4.2643     0.4423     9.9894 H            1    LIG   0.0000
  51 H            4.2495    -1.3611     8.4235 H            1    LIG   0.0000
  52 H            2.9015    -1.2197     6.4469 H            1    LIG   0.0000
  53 H           -0.1102    -1.0259     7.2033 H            1    LIG   0.0000
  54 H           -0.3489    -2.1740     6.0668 H            1    LIG   0.0000
  55 H           -1.5636     0.9354     7.3355 H            1    LIG   0.0000
  56 H           -3.7174     1.8593     6.8363 H            1    LIG   0.0000
  57 H           -5.0829     0.8605     5.1497 H            1    LIG   0.0000
  58 H           -4.3102    -1.0586     3.9560 H            1    LIG   0.0000
  59 H           -2.1581    -1.9901     4.4507 H            1    LIG   0.0000
  60 H            0.3768    -0.1573     2.2948 H            1    LIG   0.0000
  61 H            0.7546    -1.4580     1.3827 H            1    LIG   0.0000
  62 H            0.0270    -0.4482    -0.5351 H            1    LIG   0.0000
  63 H           -1.1248    -0.1112     0.5723 H            1    LIG   0.0000
@<TRIPOS>BOND
   1        1        2 1
   2        2        3 2
   3        3        4 1
   4        4        5 2
   5        5        6 1
   6        6        7 2
   7        6        8 am
   8        8        9 1
   9        9       10 1
  10       10       11 1
  11       11       12 1
  12       12       13 1
  13       13       14 am
  14       14       15 2
  15       14       16 1
  16       16       17 1
  17       17       18 ar
  18       18       19 ar
  19       19       20 ar
  20       20       21 ar
  21       21       22 ar
  22       22       17 ar
  23       16       23 1
  24       23       24 1
  25       24       25 1
  26       25       26 ar
  27       26       27 ar
  28       27       28 ar
  29       28       29 ar
  30       29       30 ar
  31       30       25 ar
  32       23       31 am
  33       31       13 am
  34       31       32 2
  35       11       33 1
  36       33       34 1
  37       34        8 1
  38        5       35 1
  39       35        2 1
  40       16       36 1
  41        1       37 1
  42        1       38 1
  43        1       39 1
  44        3       40 1
  45        4       41 1
  46        9       42 1
  47        9       43 1
  48       10       44 1
  49       10       45 1
  50       12       46 1
  51       12       47 1
  52       18       48 1
  53       19       49 1
  54       20       50 1
  55       21       51 1
  56       22       52 1
  57       24       53 1
  58       24       54 1
  59       26       55 1
  60       27       56 1
  61       28       57 1
  62       29       58 1
  63       30       59 1
  64       33       60 1
  65       33       61 1
  66       34       62 1
  67       34       63 1

@<TRIPOS>MOLECULE

  63   67
SMALL
USER_CHARGES
@<TRIPOS>ATOM
   1 C1           4.7196     6.2526     3.1614 C.3          1    LIG   0.0000
   2 C2           4.0477     5.5538     1.9908 C.2          1    LIG   0.0000
   3 C3           4.4820     5.5228     0.7015 C.2          1    LIG   0.0000
   4 C4           3.6660     4.7957    -0.2089 C.2          1    LIG   0.0000
   5 C5           2.5711     4.2470     0.3883 C.2          1    LIG   0.0000
   6 C6           1.5371     3.4488    -0.2428 C.2          1    LIG   0.0000
   7 O7           0.8837     3.9115    -1.1367 O.2          1    LIG   0.0000
   8 N8           1.3003     2.1319     0.1933 N.am         1    LIG   0.0000
   9 C9           0.2639     1.2874    -0.4166 C.3          1    LIG   0.0000
  10 C10         -0.2031     0.3463     0.6825 C.3          1    LIG   0.0000
  11 N11          0.8413    -0.6187     1.0629 N.3          1    LIG   0.0000
  12 C12          0.8464    -1.8173     0.2116 C.3          1    LIG   0.0000
  13 N13          1.3179    -1.4605    -1.1342 N.am         1    LIG   0.0000
  14 C14          2.6449    -1.4928    -1.5589 C.2          1    LIG   0.0000
  15 O15          3.6019    -1.8329    -0.8801 O.2          1    LIG   0.0000
  16 C16          2.7011    -1.0433    -3.0056 C.3          1    LIG   0.0000
  17 C17          3.4400     0.2844    -3.0558 C.ar         1    LIG   0.0000
  18 C18          4.7125     0.3430    -3.6146 C.ar         1    LIG   0.0000
  19 C19          5.3816     1.5616    -3.6558 C.ar         1    LIG   0.0000
  20 C20          4.7779     2.7052    -3.1417 C.ar         1    LIG   0.0000
  21 C21          3.5050     2.6374    -2.5849 C.ar         1    LIG   0.0000
  22 C22          2.8290     1.4222    -2.5392 C.ar         1    LIG   0.0000
  23 N23          1.2898    -0.8011    -3.3184 N.am         1    LIG   0.0000
  24 C24          0.7763    -0.3706    -4.6273 C.3          1    LIG   0.0000
  25 C25          0.9721     1.1292    -4.7800 C.ar         1    LIG   0.0000
  26 C26         -0.0276     2.0001    -4.3591 C.ar         1    LIG   0.0000
  27 C27          0.1595     3.3708    -4.5033 C.ar         1    LIG   0.0000
  28 C28          1.3368     3.8577    -5.0632 C.ar         1    LIG   0.0000
  29 C29          2.3313     2.9795    -5.4811 C.ar         1    LIG   0.0000
  30 C30          2.1519     1.6070    -5.3411 C.ar         1    LIG   0.0000
  31 C31          0.5078    -1.0447    -2.1892 C.2          1    LIG   0.0000
  32 O32         -0.7049    -0.9193    -2.1334 O.2          1    LIG   0.0000
  33 C33          2.1611     0.0289     0.9774 C.3          1    LIG   0.0000
  34 C34          2.0712     1.5173     1.2816 C.3          1    LIG   0.0000
  35 S35          2.6007     4.6552     2.0409 S.3          1    LIG   0.0000
  36 H            3.1119    -1.7316    -3.6035 H            1    LIG   0.0000
  37 H            5.5545     6.7035     2.8458 H            1    LIG   0.0000
  38 H            4.0968     6.9348     3.5445 H            1    LIG   0.0000
  39 H            4.9496     5.5794     3.8641 H            1    LIG   0.0000
  40 H            5.3219     5.9821     0.4124 H            1    LIG   0.0000
  41 H            3.8735     4.6979    -1.1823 H            1    LIG   0.0000
  42 H            0.6438     0.7678    -1.1819 H            1    LIG   0.0000
  43 H           -0.4972     1.8494    -0.7405 H            1    LIG   0.0000
  44 H           -0.4515     0.8868     1.4864 H            1    LIG   0.0000
  45 H           -1.0045    -0.1563     0.3582 H            1    LIG   0.0000
  46 H            1.4560    -2.5044     0.6071 H            1    LIG   0.0000
  47 H           -0.0803    -2.1883     0.1527 H            1    LIG   0.0000
  48 H            5.1414    -0.4819    -3.9828 H            1    LIG   0.0000
  49 H            6.2969     1.6160    -4.0549 H            1    LIG   0.0000
  50 H            5.2615     3.5800    -3.1727 H            1    LIG   0.0000
  51 H            3.0756     3.4623    -2.2173 H            1    LIG   0.0000
  52 H            1.9140     1.3675    -2.1394 H            1    LIG   0.0000
  53 H           -0.1977    -0.5879    -4.6911 H            1    LIG   0.0000
  54 H            1.2724    -0.8472    -5.3531 H            1    LIG   0.0000
  55 H           -0.8715     1.6446    -3.9573 H            1    LIG   0.0000
  56 H           -0.5522     4.0065    -4.2046 H            1    LIG   0.0000
  57 H            1.4685     4.8437    -5.1655 H            1    LIG   0.0000
  58 H            3.1756     3.3348    -5.8824 H            1    LIG   0.0000
  59 H            2.8632     0.9710    -5.6405 H            1    LIG   0.0000
  60 H            2.5239    -0.0928     0.0535 H            1    LIG   0.0000
  61 H            2.7777    -0.4012     1.6369 H            1    LIG   0.0000
  62 H            1.6070     1.6618     2.1555 H            1    LIG   0.0000
  63 H            2.9875     1.9158     1.3211 H            1    LIG   0.0000
@<TRIPOS>BOND
   1        1        2 1
   2        2        3 2
   3        3        4 1
   4        4        5 2
   5        5        6 1
   6        6        7 2
   7        6        8 am
   8        8        9 1
   9        9       10 1
  10       10       11 1
  11       11       12 1
  12       12       13 1
  13       13       14 am
  14       14       15 2
  15       14       16 1
  16       16       17 1
  17       17       18 ar
  18       18       19 ar
  19       19       20 ar
  20       20       21 ar
  21       21       22 ar
  22       22       17 ar
  23       16       23 1
  24       23       24 1
  25       24       25 1
  26       25       26 ar
  27       26       27 ar
  28       27       28 ar
  29       28       29 ar
  30       29       30 ar
  31       30       25 ar
  32       23       31 am
  33       31       13 am
  34       31       32 2
  35       11       33 1
  36       33       34 1
  37       34        8 1
  38        5       35 1
  39       35        2 1
  40       16       36 1
  41        1       37 1
  42        1       38 1
  43        1       39 1
  44        3       40 1
  45        4       41 1
  46        9       42 1
  47        9       43 1
  48       10       44 1
  49       10       45 1
  50       12       46 1
  51       12       47 1
  52       18       48 1
  53       19       49 1
  54       20       50 1
  55       21       51 1
  56       22       52 1
  57       24       53 1
  58       24       54 1
  59       26       55 1
  60       27       56 1
  61       28       57 1
  62       29       58 1
  63       30       59 1
  64       33       60 1
  65       33       61 1
  66       34       62 1
  67       34       63 1

@<TRIPOS>MOLECULE

  63   67
SMALL
USER_CHARGES
@<TRIPOS>ATOM
   1 C1           4.7196     6.2526     3.1614 C.3          1    LIG   0.0000
   2 C2           4.0477     5.5538     1.9908 C.2          1    LIG   0.0000
   3 C3           4.4820     5.5228     0.7015 C.2          1    LIG   0.0000
   4 C4           3.6660     4.7957    -0.2089 C.2          1    LIG   0.0000
   5 C5           2.5711     4.2470     0.3883 C.2          1    LIG   0.0000
   6 C6           1.5371     3.4488    -0.2428 C.2          1    LIG   0.0000
   7 O7           0.8837     3.9115    -1.1367 O.2          1    LIG   0.0000
   8 N8           1.3003     2.1319     0.1933 N.am         1    LIG   0.0000
   9 C9           0.2639     1.2874    -0.4166 C.3          1    LIG   0.0000
  10 C10         -0.2031     0.3463     0.6825 C.3          1    LIG   0.0000
  11 N11          0.8413    -0.6187     1.0629 N.3          1    LIG   0.0000
  12 C12          0.8464    -1.8173     0.2116 C.3          1    LIG   0.0000
  13 N13          1.3179    -1.4605    -1.1342 N.am         1    LIG   0.0000
  14 C14          2.6449    -1.4928    -1.5589 C.2          1    LIG   0.0000
  15 O15          3.6019    -1.8329    -0.8801 O.2          1    LIG   0.0000
  16 C16          2.7011    -1.0433    -3.0056 C.3          1    LIG   0.0000
  17 C17          3.4400     0.2844    -3.0558 C.ar         1    LIG   0.0000
  18 C18          4.7125     0.3430    -3.6146 C.ar         1    LIG   0.0000
  19 C19          5.3816     1.5616    -3.6558 C.ar         1    LIG   0.0000
  20 C20          4.7779     2.7052    -3.1417 C.ar         1    LIG   0.0000
  21 C21          3.5050     2.6374    -2.5849 C.ar         1    LIG   0.0000
  22 C22          2.8290     1.4222    -2.5392 C.ar         1    LIG   0.0000
  23 N23          1.2898    -0.8011    -3.3184 N.am         1    LIG   0.0000
  24 C24          0.7763    -0.3706    -4.6273 C.3          1    LIG   0.0000
  25 C25          0.6904    -1.5701    -5.5574 C.ar         1    LIG   0.0000
  26 C26          1.7817    -1.9036    -6.3529 C.ar         1    LIG   0.0000
  27 C27          1.6942    -3.0021    -7.2015 C.ar         1    LIG   0.0000
  28 C28          0.5245    -3.7545    -7.2482 C.ar         1    LIG   0.0000
  29 C29         -0.5618    -3.4139    -6.4489 C.ar         1    LIG   0.0000
  30 C30         -0.4829    -2.3162    -5.5978 C.ar         1    LIG   0.0000
  31 C31          0.5078    -1.0447    -2.1892 C.2          1    LIG   0.0000
  32 O32         -0.7049    -0.9193    -2.1334 O.2          1    LIG   0.0000
  33 C33          2.1611     0.0289     0.9774 C.3          1    LIG   0.0000
  34 C34          2.0712     1.5173     1.2816 C.3          1    LIG   0.0000
  35 S35          2.6007     4.6552     2.0409 S.3          1    LIG   0.0000
  36 H            3.1119    -1.7316    -3.6035 H            1    LIG   0.0000
  37 H            5.5545     6.7035     2.8458 H            1    LIG   0.0000
  38 H            4.0968     6.9348     3.5445 H            1    LIG   0.0000
  39 H            4.9496     5.5794     3.8641 H            1    LIG   0.0000
  40 H            5.3219     5.9821     0.4124 H            1    LIG   0.0000
  41 H            3.8735     4.6979    -1.1823 H            1    LIG   0.0000
  42 H            0.6438     0.7678    -1.1819 H            1    LIG   0.0000
  43 H           -0.4972     1.8494    -0.7405 H            1    LIG   0.0000
  44 H           -0.4515     0.8868     1.4864 H            1    LIG   0.0000
  45 H           -1.0045    -0.1563     0.3582 H            1    LIG   0.0000
  46 H            1.4560    -2.5044     0.6071 H            1    LIG   0.0000
  47 H           -0.0803    -2.1883     0.1527 H            1    LIG   0.0000
  48 H            5.1414    -0.4819    -3.9828 H            1    LIG   0.0000
  49 H            6.2969     1.6160    -4.0549 H            1    LIG   0.0000
  50 H            5.2615     3.5800    -3.1727 H            1    LIG   0.0000
  51 H            3.0756     3.4623    -2.2173 H            1    LIG   0.0000
  52 H            1.9140     1.3675    -2.1394 H            1    LIG   0.0000
  53 H            1.3933     0.3117    -5.0193 H            1    LIG   0.0000
  54 H           -0.1334     0.0287    -4.5135 H            1    LIG   0.0000
  55 H            2.6199    -1.3595    -6.3150 H            1    LIG   0.0000
  56 H            2.4722    -3.2514    -7.7782 H            1    LIG   0.0000
  57 H            0.4646    -4.5438    -7.8593 H            1    LIG   0.0000
  58 H           -1.3999    -3.9583    -6.4861 H            1    LIG   0.0000
  59 H           -1.2610    -2.0663    -5.0215 H            1    LIG   0.0000
  60 H            2.5239    -0.0928     0.0535 H            1    LIG   0.0000
  61 H            2.7777    -0.4012     1.6369 H            1    LIG   0.0000
  62 H            1.6070     1.6618     2.1555 H            1    LIG   0.0000
  63 H            2.9875     1.9158     1.3211 H            1    LIG   0.0000
@<TRIPOS>BOND
   1        1        2 1
   2        2        3 2
   3        3        4 1
   4        4        5 2
   5        5        6 1
   6        6        7 2
   7        6        8 am
   8        8        9 1
   9        9       10 1
  10       10       11 1
  11       11       12 1
  12       12       13 1
  13       13       14 am
  14       14       15 2
  15       14       16 1
  16       16       17 1
  17       17       18 ar
  18       18       19 ar
  19       19       20 ar
  20       20       21 ar
  21       21       22 ar
  22       22       17 ar
  23       16       23 1
  24       23       24 1
  25       24       25 1
  26       25       26 ar
  27       26       27 ar
  28       27       28 ar
  29       28       29 ar
  30       29       30 ar
  31       30       25 ar
  32       23       31 am
  33       31       13 am
  34       31       32 2
  35       11       33 1
  36       33       34 1
  37       34        8 1
  38        5       35 1
  39       35        2 1
  40       16       36 1
  41        1       37 1
  42        1       38 1
  43        1       39 1
  44        3       40 1
  45        4       41 1
  46        9       42 1
  47        9       43 1
  48       10       44 1
  49       10       45 1
  50       12       46 1
  51       12       47 1
  52       18       48 1
  53       19       49 1
  54       20       50 1
  55       21       51 1
  56       22       52 1
  57       24       53 1
  58       24       54 1
  59       26       55 1
  60       27       56 1
  61       28       57 1
  62       29       58 1
  63       30       59 1
  64       33       60 1
  65       33       61 1
  66       34       62 1
  67       34       63 1

@<TRIPOS>MOLECULE

  63   67
SMALL
USER_CHARGES
@<TRIPOS>ATOM
   1 C1           4.7196     6.2526     3.1614 C.3          1    LIG   0.0000
   2 C2           4.0477     5.5538     1.9908 C.2          1    LIG   0.0000
   3 C3           4.4820     5.5228     0.7015 C.2          1    LIG   0.0000
   4 C4           3.6660     4.7957    -0.2089 C.2          1    LIG   0.0000
   5 C5           2.5711     4.2470     0.3883 C.2          1    LIG   0.0000
   6 C6           1.5371     3.4488    -0.2428 C.2          1    LIG   0.0000
   7 O7           0.8837     3.9115    -1.1367 O.2          1    LIG   0.0000
   8 N8           1.3003     2.1319     0.1933 N.am         1    LIG   0.0000
   9 C9           0.2639     1.2874    -0.4166 C.3          1    LIG   0.0000
  10 C10         -0.2031     0.3463     0.6825 C.3          1    LIG   0.0000
  11 N11          0.8413    -0.6187     1.0629 N.3          1    LIG   0.0000
  12 C12          0.8464    -1.8173     0.2116 C.3          1    LIG   0.0000
  13 N13          1.3179    -1.4605    -1.1342 N.am         1    LIG   0.0000
  14 C14          0.5083    -1.0367    -2.1864 C.2          1    LIG   0.0000
  15 O15         -0.7034    -0.8894    -2.1381 O.2          1    LIG   0.0000
  16 C16          1.3833    -0.7814    -3.3979 C.3          1    LIG   0.0000
  17 C17          1.0325    -1.8153    -4.4558 C.ar         1    LIG   0.0000
  18 C18          0.3592    -1.4205    -5.6072 C.ar         1    LIG   0.0000
  19 C19          0.0416    -2.3731    -6.5697 C.ar         1    LIG   0.0000
  20 C20          0.3972    -3.7044    -6.3757 C.ar         1    LIG   0.0000
  21 C21          1.0707    -4.0902    -5.2213 C.ar         1    LIG   0.0000
  22 C22          1.3916    -3.1438    -4.2533 C.ar         1    LIG   0.0000
  23 N23          2.7255    -1.0758    -2.8882 N.am         1    LIG   0.0000
  24 C24          3.9691    -0.9537    -3.6634 C.3          1    LIG   0.0000
  25 C25          4.3968     0.5044    -3.7090 C.ar         1    LIG   0.0000
  26 C26          3.9453     1.3221    -4.7397 C.ar         1    LIG   0.0000
  27 C27          4.3421     2.6547    -4.7741 C.ar         1    LIG   0.0000
  28 C28          5.1814     3.1571    -3.7844 C.ar         1    LIG   0.0000
  29 C29          5.6279     2.3322    -2.7571 C.ar         1    LIG   0.0000
  30 C30          5.2363     0.9979    -2.7156 C.ar         1    LIG   0.0000
  31 C31          2.6457    -1.4845    -1.5569 C.2          1    LIG   0.0000
  32 O32          3.5956    -1.8089    -0.8627 O.2          1    LIG   0.0000
  33 C33          2.1611     0.0289     0.9774 C.3          1    LIG   0.0000
  34 C34          2.0712     1.5173     1.2816 C.3          1    LIG   0.0000
  35 S35          2.6007     4.6552     2.0409 S.3          1    LIG   0.0000
  36 H            1.3009     0.1555    -3.7376 H            1    LIG   0.0000
  37 H            5.5545     6.7035     2.8458 H            1    LIG   0.0000
  38 H            4.0968     6.9348     3.5445 H            1    LIG   0.0000
  39 H            4.9496     5.5794     3.8641 H            1    LIG   0.0000
  40 H            5.3219     5.9821     0.4124 H            1    LIG   0.0000
  41 H            3.8735     4.6979    -1.1823 H            1    LIG   0.0000
  42 H            0.6438     0.7678    -1.1819 H            1    LIG   0.0000
  43 H           -0.4972     1.8494    -0.7405 H            1    LIG   0.0000
  44 H           -0.4515     0.8868     1.4864 H            1    LIG   0.0000
  45 H           -1.0045    -0.1563     0.3582 H            1    LIG   0.0000
  46 H            1.4560    -2.5044     0.6071 H            1    LIG   0.0000
  47 H           -0.0803    -2.1883     0.1527 H            1    LIG   0.0000
  48 H            0.1062    -0.4624    -5.7415 H            1    LIG   0.0000
  49 H           -0.4426    -2.1011    -7.4013 H            1    LIG   0.0000
  50 H            0.1676    -4.3869    -7.0695 H            1    LIG   0.0000
  51 H            1.3243    -5.0482    -5.0872 H            1    LIG   0.0000
  52 H            1.8751    -3.4156    -3.4212 H            1    LIG   0.0000
  53 H            3.8156    -1.2853    -4.5942 H            1    LIG   0.0000
  54 H            4.6870    -1.4983    -3.2297 H            1    LIG   0.0000
  55 H            3.3420     0.9558    -5.4482 H            1    LIG   0.0000
  56 H            4.0241     3.2521    -5.5104 H            1    LIG   0.0000
  57 H            5.4650     4.1157    -3.8117 H            1    LIG   0.0000
  58 H            6.2306     2.6985    -2.0482 H            1    LIG   0.0000
  59 H            5.5548     0.4001    -1.9799 H            1    LIG   0.0000
  60 H            2.5239    -0.0928     0.0535 H            1    LIG   0.0000
  61 H            2.7777    -0.4012     1.6369 H            1    LIG   0.0000
  62 H            1.6070     1.6618     2.1555 H            1    LIG   0.0000
  63 H            2.9875     1.9158     1.3211 H            1    LIG   0.0000
@<TRIPOS>BOND
   1        1        2 1
   2        2        3 2
   3        3        4 1
   4        4        5 2
   5        5        6 1
   6        6        7 2
   7        6        8 am
   8        8        9 1
   9        9       10 1
  10       10       11 1
  11       11       12 1
  12       12       13 1
  13       13       14 am
  14       14       15 2
  15       14       16 1
  16       16       17 1
  17       17       18 ar
  18       18       19 ar
  19       19       20 ar
  20       20       21 ar
  21       21       22 ar
  22       22       17 ar
  23       16       23 1
  24       23       24 1
  25       24       25 1
  26       25       26 ar
  27       26       27 ar
  28       27       28 ar
  29       28       29 ar
  30       29       30 ar
  31       30       25 ar
  32       23       31 am
  33       31       13 am
  34       31       32 2
  35       11       33 1
  36       33       34 1
  37       34        8 1
  38        5       35 1
  39       35        2 1
  40       16       36 1
  41        1       37 1
  42        1       38 1
  43        1       39 1
  44        3       40 1
  45        4       41 1
  46        9       42 1
  47        9       43 1
  48       10       44 1
  49       10       45 1
  50       12       46 1
  51       12       47 1
  52       18       48 1
  53       19       49 1
  54       20       50 1
  55       21       51 1
  56       22       52 1
  57       24       53 1
  58       24       54 1
  59       26       55 1
  60       27       56 1
  61       28       57 1
  62       29       58 1
  63       30       59 1
  64       33       60 1
  65       33       61 1
  66       34       62 1
  67       34       63 1

