@<TRIPOS>MOLECULE
*****
 63 67 0 0 0
SMALL
USER_CHARGES

@<TRIPOS>ATOM
      1 C1         -0.1505    7.6060    0.0155 C.3     1  LIG1        0.0000
      2 C2         -0.4863    6.1793   -0.3871 C.2     1  LIG1        0.0000
      3 C3         -0.8992    5.7537   -1.6119 C.2     1  LIG1        0.0000
      4 C4         -1.1504    4.3585   -1.7298 C.2     1  LIG1        0.0000
      5 C5         -0.9255    3.6832   -0.5679 C.2     1  LIG1        0.0000
      6 C6         -1.0826    2.2595   -0.3380 C.2     1  LIG1        0.0000
      7 O7         -2.1535    1.7411   -0.4943 O.2     1  LIG1        0.0000
      8 N8          0.0146    1.4907    0.0659 N.am    1  LIG1        0.0000
      9 C9          1.3128    2.1595    0.2478 C.3     1  LIG1        0.0000
     10 C10         2.1248    1.5105    1.3598 C.3     1  LIG1        0.0000
     11 N11         2.1168    0.0412    1.2706 N.3     1  LIG1        0.0000
     12 C12         2.8849   -0.4673    2.4166 C.3     1  LIG1        0.0000
     13 N13         2.1311   -0.2295    3.6560 N.am    1  LIG1        0.0000
     14 C14         1.2203   -1.1154    4.2286 C.2     1  LIG1        0.0000
     15 O15         0.9278   -2.2179    3.7913 O.2     1  LIG1        0.0000
     16 C16         0.6596   -0.4859    5.4886 C.3     1  LIG1        0.0000
     17 C17        -0.8157   -0.2028    5.2548 C.3     1  LIG1        0.0000
     18 C18        -1.7753   -0.9558    5.9234 C.3     1  LIG1        0.0000
     19 C19        -3.1227   -0.6906    5.7030 C.3     1  LIG1        0.0000
     20 C20        -3.4987    0.3189    4.8221 C.3     1  LIG1        0.0000
     21 C21        -2.5323    1.0672    4.1579 C.3     1  LIG1        0.0000
     22 C22        -1.1823    0.8080    4.3722 C.3     1  LIG1        0.0000
     23 N23         1.3735    0.7926    5.5500 N.am    1  LIG1        0.0000
     24 C24         1.2221    1.7945    6.6157 C.3     1  LIG1        0.0000
     25 C25        -0.0343    2.6134    6.3666 C.3     1  LIG1        0.0000
     26 C26         0.0407    3.7736    5.6030 C.3     1  LIG1        0.0000
     27 C27        -1.1136    4.5172    5.3807 C.3     1  LIG1        0.0000
     28 C28        -2.3263    4.0982    5.9195 C.3     1  LIG1        0.0000
     29 C29        -2.3920    2.9364    6.6817 C.3     1  LIG1        0.0000
     30 C30        -1.2421    2.1872    6.9094 C.3     1  LIG1        0.0000
     31 C31         2.2205    0.9135    4.4483 C.2     1  LIG1        0.0000
     32 O32         2.9381    1.8727    4.2148 O.2     1  LIG1        0.0000
     33 C33         0.7393   -0.4586    1.4129 C.3     1  LIG1        0.0000
     34 C34        -0.1742    0.0510    0.3077 C.3     1  LIG1        0.0000
     35 S35        -0.4174    4.8005    0.6119 S.3     1  LIG1        0.0000
     36 H           0.8162   -1.0499    6.2994 H       1  LIG1        0.0000
     37 H          -0.2785    8.2127   -0.7690 H       1  LIG1        0.0000
     38 H          -0.7529    7.8927    0.7604 H       1  LIG1        0.0000
     39 H           0.8010    7.6512    0.3201 H       1  LIG1        0.0000
     40 H          -1.0186    6.3821   -2.3806 H       1  LIG1        0.0000
     41 H          -1.4588    3.9206   -2.5743 H       1  LIG1        0.0000
     42 H           1.1540    3.1193    0.4793 H       1  LIG1        0.0000
     43 H           1.8294    2.1038   -0.6066 H       1  LIG1        0.0000
     44 H           3.0699    1.8316    1.2977 H       1  LIG1        0.0000
     45 H           1.7379    1.7816    2.2412 H       1  LIG1        0.0000
     46 H           3.0408   -1.4486    2.3043 H       1  LIG1        0.0000
     47 H           3.7642    0.0065    2.4652 H       1  LIG1        0.0000
     48 H          -1.4994   -1.6799    6.5555 H       1  LIG1        0.0000
     49 H          -3.8216   -1.2255    6.1778 H       1  LIG1        0.0000
     50 H          -4.4683    0.5073    4.6657 H       1  LIG1        0.0000
     51 H          -2.8080    1.7918    3.5263 H       1  LIG1        0.0000
     52 H          -0.4832    1.3423    3.8969 H       1  LIG1        0.0000
     53 H           2.0186    2.3991    6.6203 H       1  LIG1        0.0000
     54 H           1.1491    1.3325    7.4996 H       1  LIG1        0.0000
     55 H           0.9148    4.0699    5.2181 H       1  LIG1        0.0000
     56 H          -1.0720    5.3532    4.8336 H       1  LIG1        0.0000
     57 H          -3.1545    4.6349    5.7579 H       1  LIG1        0.0000
     58 H          -3.2662    2.6396    7.0661 H       1  LIG1        0.0000
     59 H          -1.2833    1.3516    7.4571 H       1  LIG1        0.0000
     60 H           0.3768   -0.1573    2.2948 H       1  LIG1        0.0000
     61 H           0.7546   -1.4580    1.3827 H       1  LIG1        0.0000
     62 H           0.0270   -0.4482   -0.5351 H       1  LIG1        0.0000
     63 H          -1.1248   -0.1112    0.5723 H       1  LIG1        0.0000
@<TRIPOS>BOND
     1     1     2    1
     2     2     3    2
     3     3     4    1
     4     4     5    2
     5     5     6    1
     6     6     7    2
     7     6     8   am
     8     8     9    1
     9     9    10    1
    10    10    11    1
    11    11    12    1
    12    12    13    1
    13    13    14   am
    14    14    15    2
    15    14    16    1
    16    16    17    1
    17    17    18   ar
    18    18    19   ar
    19    19    20   ar
    20    20    21   ar
    21    21    22   ar
    22    22    17   ar
    23    16    23    1
    24    23    24    1
    25    24    25    1
    26    25    26   ar
    27    26    27   ar
    28    27    28   ar
    29    28    29   ar
    30    29    30   ar
    31    30    25   ar
    32    23    31   am
    33    31    13   am
    34    31    32    2
    35    11    33    1
    36    33    34    1
    37    34     8    1
    38     5    35    1
    39    35     2    1
    40    16    36    1
    41     1    37    1
    42     1    38    1
    43     1    39    1
    44     3    40    1
    45     4    41    1
    46     9    42    1
    47     9    43    1
    48    10    44    1
    49    10    45    1
    50    12    46    1
    51    12    47    1
    52    18    48    1
    53    19    49    1
    54    20    50    1
    55    21    51    1
    56    22    52    1
    57    24    53    1
    58    24    54    1
    59    26    55    1
    60    27    56    1
    61    28    57    1
    62    29    58    1
    63    30    59    1
    64    33    60    1
    65    33    61    1
    66    34    62    1
    67    34    63    1
