@<TRIPOS>MOLECULE
*****
 63 67 0 0 0
SMALL
USER_CHARGES

@<TRIPOS>ATOM
      1 C1         -5.3149   -0.7747   -1.9066 C.3     1  LIG1        0.0000
      2 C2         -4.3451    0.2077   -1.2706 C.2     1  LIG1        0.0000
      3 C3         -4.6277    1.1208   -0.3019 C.2     1  LIG1        0.0000
      4 C4         -3.5368    1.9275    0.1252 C.2     1  LIG1        0.0000
      5 C5         -2.3773    1.6328   -0.5270 C.2     1  LIG1        0.0000
      6 C6         -1.0826    2.2595   -0.3380 C.2     1  LIG1        0.0000
      7 O7         -0.9527    3.4372   -0.5282 O.2     1  LIG1        0.0000
      8 N8          0.0146    1.4907    0.0659 N.am    1  LIG1        0.0000
      9 C9          1.3128    2.1595    0.2478 C.3     1  LIG1        0.0000
     10 C10         2.1248    1.5105    1.3598 C.3     1  LIG1        0.0000
     11 N11         2.1168    0.0412    1.2706 N.3     1  LIG1        0.0000
     12 C12         2.8849   -0.4673    2.4166 C.3     1  LIG1        0.0000
     13 N13         4.3091   -0.1548    2.2294 N.am    1  LIG1        0.0000
     14 C14         5.2353   -0.9701    1.5816 C.2     1  LIG1        0.0000
     15 O15         4.9951   -2.0517    1.0671 O.2     1  LIG1        0.0000
     16 C16         6.5882   -0.2868    1.6148 C.3     1  LIG1        0.0000
     17 C17         7.5103   -1.1150    2.4951 C.3     1  LIG1        0.0000
     18 C18         8.5550   -1.8289    1.9174 C.3     1  LIG1        0.0000
     19 C19         9.3934   -2.5847    2.7301 C.3     1  LIG1        0.0000
     20 C20         9.1830   -2.6208    4.1052 C.3     1  LIG1        0.0000
     21 C21         8.1358   -1.9035    4.6744 C.3     1  LIG1        0.0000
     22 C22         7.2922   -1.1456    3.8686 C.3     1  LIG1        0.0000
     23 N23         6.2922    0.9709    2.3066 N.am    1  LIG1        0.0000
     24 C24         7.2690    2.0359    2.5782 C.3     1  LIG1        0.0000
     25 C25         8.0957    1.6660    3.7992 C.3     1  LIG1        0.0000
     26 C26         7.6664    2.0539    5.0642 C.3     1  LIG1        0.0000
     27 C27         8.4292    1.7118    6.1758 C.3     1  LIG1        0.0000
     28 C28         9.6076    0.9890    6.0159 C.3     1  LIG1        0.0000
     29 C29        10.0292    0.6050    4.7471 C.3     1  LIG1        0.0000
     30 C30         9.2724    0.9437    3.6299 C.3     1  LIG1        0.0000
     31 C31         4.9443    1.0069    2.6642 C.2     1  LIG1        0.0000
     32 O32         4.3997    1.9207    3.2624 O.2     1  LIG1        0.0000
     33 C33         0.7393   -0.4586    1.4129 C.3     1  LIG1        0.0000
     34 C34        -0.1742    0.0510    0.3077 C.3     1  LIG1        0.0000
     35 S35        -2.6891    0.3780   -1.6345 S.3     1  LIG1        0.0000
     36 H           6.9642   -0.1399    0.6999 H       1  LIG1        0.0000
     37 H          -6.2222   -0.6560   -1.5033 H       1  LIG1        0.0000
     38 H          -5.3630   -0.6056   -2.8911 H       1  LIG1        0.0000
     39 H          -4.9975   -1.7090   -1.7440 H       1  LIG1        0.0000
     40 H          -5.5446    1.2184    0.0853 H       1  LIG1        0.0000
     41 H          -3.6126    2.6346    0.8283 H       1  LIG1        0.0000
     42 H           1.1540    3.1193    0.4793 H       1  LIG1        0.0000
     43 H           1.8294    2.1038   -0.6066 H       1  LIG1        0.0000
     44 H           3.0699    1.8316    1.2977 H       1  LIG1        0.0000
     45 H           1.7379    1.7816    2.2412 H       1  LIG1        0.0000
     46 H           2.5564   -0.0349    3.2563 H       1  LIG1        0.0000
     47 H           2.7670   -1.4580    2.4837 H       1  LIG1        0.0000
     48 H           8.7017   -1.7992    0.9286 H       1  LIG1        0.0000
     49 H          10.1477   -3.1023    2.3261 H       1  LIG1        0.0000
     50 H           9.7874   -3.1650    4.6870 H       1  LIG1        0.0000
     51 H           7.9894   -1.9326    5.6632 H       1  LIG1        0.0000
     52 H           6.5374   -0.6285    4.2722 H       1  LIG1        0.0000
     53 H           6.7866    2.8949    2.7500 H       1  LIG1        0.0000
     54 H           7.8720    2.1447    1.7879 H       1  LIG1        0.0000
     55 H           6.8186    2.5730    5.1732 H       1  LIG1        0.0000
     56 H           8.1308    1.9853    7.0902 H       1  LIG1        0.0000
     57 H          10.1539    0.7445    6.8170 H       1  LIG1        0.0000
     58 H          10.8766    0.0853    4.6380 H       1  LIG1        0.0000
     59 H           9.5710    0.6709    2.7154 H       1  LIG1        0.0000
     60 H           0.3768   -0.1573    2.2948 H       1  LIG1        0.0000
     61 H           0.7546   -1.4580    1.3827 H       1  LIG1        0.0000
     62 H           0.0270   -0.4482   -0.5351 H       1  LIG1        0.0000
     63 H          -1.1248   -0.1112    0.5723 H       1  LIG1        0.0000
@<TRIPOS>BOND
     1     1     2    1
     2     2     3    2
     3     3     4    1
     4     4     5    2
     5     5     6    1
     6     6     7    2
     7     6     8   am
     8     8     9    1
     9     9    10    1
    10    10    11    1
    11    11    12    1
    12    12    13    1
    13    13    14   am
    14    14    15    2
    15    14    16    1
    16    16    17    1
    17    17    18   ar
    18    18    19   ar
    19    19    20   ar
    20    20    21   ar
    21    21    22   ar
    22    22    17   ar
    23    16    23    1
    24    23    24    1
    25    24    25    1
    26    25    26   ar
    27    26    27   ar
    28    27    28   ar
    29    28    29   ar
    30    29    30   ar
    31    30    25   ar
    32    23    31   am
    33    31    13   am
    34    31    32    2
    35    11    33    1
    36    33    34    1
    37    34     8    1
    38     5    35    1
    39    35     2    1
    40    16    36    1
    41     1    37    1
    42     1    38    1
    43     1    39    1
    44     3    40    1
    45     4    41    1
    46     9    42    1
    47     9    43    1
    48    10    44    1
    49    10    45    1
    50    12    46    1
    51    12    47    1
    52    18    48    1
    53    19    49    1
    54    20    50    1
    55    21    51    1
    56    22    52    1
    57    24    53    1
    58    24    54    1
    59    26    55    1
    60    27    56    1
    61    28    57    1
    62    29    58    1
    63    30    59    1
    64    33    60    1
    65    33    61    1
    66    34    62    1
    67    34    63    1
