@<TRIPOS>MOLECULE
*****
 63 67 0 0 0
SMALL
USER_CHARGES

@<TRIPOS>ATOM
      1 C1         -5.3149   -0.7747   -1.9066 C.3     1  LIG1        0.0000
      2 C2         -4.3451    0.2077   -1.2706 C.2     1  LIG1        0.0000
      3 C3         -4.6277    1.1208   -0.3019 C.2     1  LIG1        0.0000
      4 C4         -3.5368    1.9275    0.1252 C.2     1  LIG1        0.0000
      5 C5         -2.3773    1.6328   -0.5270 C.2     1  LIG1        0.0000
      6 C6         -1.0826    2.2595   -0.3380 C.2     1  LIG1        0.0000
      7 O7         -0.9527    3.4372   -0.5282 O.2     1  LIG1        0.0000
      8 N8          0.0146    1.4907    0.0659 N.am    1  LIG1        0.0000
      9 C9          1.3128    2.1595    0.2478 C.3     1  LIG1        0.0000
     10 C10         2.1248    1.5105    1.3598 C.3     1  LIG1        0.0000
     11 N11         2.1168    0.0412    1.2706 N.3     1  LIG1        0.0000
     12 C12         2.8849   -0.4673    2.4166 C.3     1  LIG1        0.0000
     13 N13         4.3091   -0.1548    2.2294 N.am    1  LIG1        0.0000
     14 C14         4.9456    1.0034    2.6717 C.2     1  LIG1        0.0000
     15 O15         4.4164    1.9162    3.2873 O.2     1  LIG1        0.0000
     16 C16         6.4056    0.9372    2.2687 C.3     1  LIG1        0.0000
     17 C17         6.6561    2.0227    1.2343 C.3     1  LIG1        0.0000
     18 C18         7.4211    3.1337    1.5740 C.3     1  LIG1        0.0000
     19 C19         7.6447    4.1224    0.6217 C.3     1  LIG1        0.0000
     20 C20         7.1058    3.9942   -0.6549 C.3     1  LIG1        0.0000
     21 C21         6.3422    2.8796   -0.9861 C.3     1  LIG1        0.0000
     22 C22         6.1132    1.8863   -0.0392 C.3     1  LIG1        0.0000
     23 N23         6.4932   -0.3662    1.6043 N.am    1  LIG1        0.0000
     24 C24         7.7217   -0.9474    1.0428 C.3     1  LIG1        0.0000
     25 C25         8.5522   -1.5553    2.1617 C.3     1  LIG1        0.0000
     26 C26         9.4968   -0.7745    2.8197 C.3     1  LIG1        0.0000
     27 C27        10.2528   -1.3389    3.8417 C.3     1  LIG1        0.0000
     28 C28        10.0600   -2.6706    4.1965 C.3     1  LIG1        0.0000
     29 C29         9.1129   -3.4439    3.5333 C.3     1  LIG1        0.0000
     30 C30         8.3530   -2.8874    2.5094 C.3     1  LIG1        0.0000
     31 C31         5.2375   -0.9734    1.5890 C.2     1  LIG1        0.0000
     32 O32         4.9884   -2.0613    1.0951 O.2     1  LIG1        0.0000
     33 C33         0.7393   -0.4586    1.4129 C.3     1  LIG1        0.0000
     34 C34        -0.1742    0.0510    0.3077 C.3     1  LIG1        0.0000
     35 S35        -2.6891    0.3780   -1.6345 S.3     1  LIG1        0.0000
     36 H           7.0217    1.0079    3.0532 H       1  LIG1        0.0000
     37 H          -6.2222   -0.6560   -1.5033 H       1  LIG1        0.0000
     38 H          -5.3630   -0.6056   -2.8911 H       1  LIG1        0.0000
     39 H          -4.9975   -1.7090   -1.7440 H       1  LIG1        0.0000
     40 H          -5.5446    1.2184    0.0853 H       1  LIG1        0.0000
     41 H          -3.6126    2.6346    0.8283 H       1  LIG1        0.0000
     42 H           1.1540    3.1193    0.4793 H       1  LIG1        0.0000
     43 H           1.8294    2.1038   -0.6066 H       1  LIG1        0.0000
     44 H           3.0699    1.8316    1.2977 H       1  LIG1        0.0000
     45 H           1.7379    1.7816    2.2412 H       1  LIG1        0.0000
     46 H           2.5564   -0.0349    3.2563 H       1  LIG1        0.0000
     47 H           2.7670   -1.4580    2.4837 H       1  LIG1        0.0000
     48 H           7.8060    3.2205    2.4929 H       1  LIG1        0.0000
     49 H           8.1928    4.9258    0.8544 H       1  LIG1        0.0000
     50 H           7.2684    4.7067   -1.3375 H       1  LIG1        0.0000
     51 H           5.9578    2.7922   -1.9051 H       1  LIG1        0.0000
     52 H           5.5645    1.0832   -0.2715 H       1  LIG1        0.0000
     53 H           8.2504   -0.2319    0.5861 H       1  LIG1        0.0000
     54 H           7.4821   -1.6583    0.3815 H       1  LIG1        0.0000
     55 H           9.6310    0.1820    2.5607 H       1  LIG1        0.0000
     56 H          10.9351   -0.7875    4.3218 H       1  LIG1        0.0000
     57 H          10.6050   -3.0736    4.9318 H       1  LIG1        0.0000
     58 H           8.9781   -4.4003    3.7926 H       1  LIG1        0.0000
     59 H           7.6712   -3.4388    2.0287 H       1  LIG1        0.0000
     60 H           0.3768   -0.1573    2.2948 H       1  LIG1        0.0000
     61 H           0.7546   -1.4580    1.3827 H       1  LIG1        0.0000
     62 H           0.0270   -0.4482   -0.5351 H       1  LIG1        0.0000
     63 H          -1.1248   -0.1112    0.5723 H       1  LIG1        0.0000
@<TRIPOS>BOND
     1     1     2    1
     2     2     3    2
     3     3     4    1
     4     4     5    2
     5     5     6    1
     6     6     7    2
     7     6     8   am
     8     8     9    1
     9     9    10    1
    10    10    11    1
    11    11    12    1
    12    12    13    1
    13    13    14   am
    14    14    15    2
    15    14    16    1
    16    16    17    1
    17    17    18   ar
    18    18    19   ar
    19    19    20   ar
    20    20    21   ar
    21    21    22   ar
    22    22    17   ar
    23    16    23    1
    24    23    24    1
    25    24    25    1
    26    25    26   ar
    27    26    27   ar
    28    27    28   ar
    29    28    29   ar
    30    29    30   ar
    31    30    25   ar
    32    23    31   am
    33    31    13   am
    34    31    32    2
    35    11    33    1
    36    33    34    1
    37    34     8    1
    38     5    35    1
    39    35     2    1
    40    16    36    1
    41     1    37    1
    42     1    38    1
    43     1    39    1
    44     3    40    1
    45     4    41    1
    46     9    42    1
    47     9    43    1
    48    10    44    1
    49    10    45    1
    50    12    46    1
    51    12    47    1
    52    18    48    1
    53    19    49    1
    54    20    50    1
    55    21    51    1
    56    22    52    1
    57    24    53    1
    58    24    54    1
    59    26    55    1
    60    27    56    1
    61    28    57    1
    62    29    58    1
    63    30    59    1
    64    33    60    1
    65    33    61    1
    66    34    62    1
    67    34    63    1
