@<TRIPOS>MOLECULE
*****
 63 67 0 0 0
SMALL
USER_CHARGES

@<TRIPOS>ATOM
      1 C1          4.7196    6.2526    3.1614 C.3     1  LIG1        0.0000
      2 C2          4.0477    5.5538    1.9908 C.2     1  LIG1        0.0000
      3 C3          4.4820    5.5228    0.7015 C.2     1  LIG1        0.0000
      4 C4          3.6660    4.7957   -0.2089 C.2     1  LIG1        0.0000
      5 C5          2.5711    4.2470    0.3883 C.2     1  LIG1        0.0000
      6 C6          1.5371    3.4488   -0.2428 C.2     1  LIG1        0.0000
      7 O7          0.8837    3.9115   -1.1367 O.2     1  LIG1        0.0000
      8 N8          1.3003    2.1319    0.1933 N.am    1  LIG1        0.0000
      9 C9          0.2639    1.2874   -0.4166 C.3     1  LIG1        0.0000
     10 C10        -0.2031    0.3463    0.6825 C.3     1  LIG1        0.0000
     11 N11         0.8413   -0.6187    1.0629 N.3     1  LIG1        0.0000
     12 C12         0.8464   -1.8173    0.2116 C.3     1  LIG1        0.0000
     13 N13         1.3179   -1.4605   -1.1342 N.am    1  LIG1        0.0000
     14 C14         2.6449   -1.4928   -1.5589 C.2     1  LIG1        0.0000
     15 O15         3.6019   -1.8329   -0.8801 O.2     1  LIG1        0.0000
     16 C16         2.7011   -1.0433   -3.0056 C.3     1  LIG1        0.0000
     17 C17         3.4400    0.2844   -3.0558 C.3     1  LIG1        0.0000
     18 C18         4.7125    0.3430   -3.6146 C.3     1  LIG1        0.0000
     19 C19         5.3816    1.5616   -3.6558 C.3     1  LIG1        0.0000
     20 C20         4.7779    2.7052   -3.1417 C.3     1  LIG1        0.0000
     21 C21         3.5050    2.6374   -2.5849 C.3     1  LIG1        0.0000
     22 C22         2.8290    1.4222   -2.5392 C.3     1  LIG1        0.0000
     23 N23         1.2898   -0.8011   -3.3184 N.am    1  LIG1        0.0000
     24 C24         0.7763   -0.3706   -4.6273 C.3     1  LIG1        0.0000
     25 C25         0.6904   -1.5701   -5.5574 C.3     1  LIG1        0.0000
     26 C26         1.7817   -1.9036   -6.3529 C.3     1  LIG1        0.0000
     27 C27         1.6942   -3.0021   -7.2015 C.3     1  LIG1        0.0000
     28 C28         0.5245   -3.7545   -7.2482 C.3     1  LIG1        0.0000
     29 C29        -0.5618   -3.4139   -6.4489 C.3     1  LIG1        0.0000
     30 C30        -0.4829   -2.3162   -5.5978 C.3     1  LIG1        0.0000
     31 C31         0.5078   -1.0447   -2.1892 C.2     1  LIG1        0.0000
     32 O32        -0.7049   -0.9193   -2.1334 O.2     1  LIG1        0.0000
     33 C33         2.1611    0.0289    0.9774 C.3     1  LIG1        0.0000
     34 C34         2.0712    1.5173    1.2816 C.3     1  LIG1        0.0000
     35 S35         2.6007    4.6552    2.0409 S.3     1  LIG1        0.0000
     36 H           3.1119   -1.7316   -3.6035 H       1  LIG1        0.0000
     37 H           5.5545    6.7035    2.8458 H       1  LIG1        0.0000
     38 H           4.0968    6.9348    3.5445 H       1  LIG1        0.0000
     39 H           4.9496    5.5794    3.8641 H       1  LIG1        0.0000
     40 H           5.3219    5.9821    0.4124 H       1  LIG1        0.0000
     41 H           3.8735    4.6979   -1.1823 H       1  LIG1        0.0000
     42 H           0.6438    0.7678   -1.1819 H       1  LIG1        0.0000
     43 H          -0.4972    1.8494   -0.7405 H       1  LIG1        0.0000
     44 H          -0.4515    0.8868    1.4864 H       1  LIG1        0.0000
     45 H          -1.0045   -0.1563    0.3582 H       1  LIG1        0.0000
     46 H           1.4560   -2.5044    0.6071 H       1  LIG1        0.0000
     47 H          -0.0803   -2.1883    0.1527 H       1  LIG1        0.0000
     48 H           5.1414   -0.4819   -3.9828 H       1  LIG1        0.0000
     49 H           6.2969    1.6160   -4.0549 H       1  LIG1        0.0000
     50 H           5.2615    3.5800   -3.1727 H       1  LIG1        0.0000
     51 H           3.0756    3.4623   -2.2173 H       1  LIG1        0.0000
     52 H           1.9140    1.3675   -2.1394 H       1  LIG1        0.0000
     53 H           1.3933    0.3117   -5.0193 H       1  LIG1        0.0000
     54 H          -0.1334    0.0287   -4.5135 H       1  LIG1        0.0000
     55 H           2.6199   -1.3595   -6.3150 H       1  LIG1        0.0000
     56 H           2.4722   -3.2514   -7.7782 H       1  LIG1        0.0000
     57 H           0.4646   -4.5438   -7.8593 H       1  LIG1        0.0000
     58 H          -1.3999   -3.9583   -6.4861 H       1  LIG1        0.0000
     59 H          -1.2610   -2.0663   -5.0215 H       1  LIG1        0.0000
     60 H           2.5239   -0.0928    0.0535 H       1  LIG1        0.0000
     61 H           2.7777   -0.4012    1.6369 H       1  LIG1        0.0000
     62 H           1.6070    1.6618    2.1555 H       1  LIG1        0.0000
     63 H           2.9875    1.9158    1.3211 H       1  LIG1        0.0000
@<TRIPOS>BOND
     1     1     2    1
     2     2     3    2
     3     3     4    1
     4     4     5    2
     5     5     6    1
     6     6     7    2
     7     6     8   am
     8     8     9    1
     9     9    10    1
    10    10    11    1
    11    11    12    1
    12    12    13    1
    13    13    14   am
    14    14    15    2
    15    14    16    1
    16    16    17    1
    17    17    18   ar
    18    18    19   ar
    19    19    20   ar
    20    20    21   ar
    21    21    22   ar
    22    22    17   ar
    23    16    23    1
    24    23    24    1
    25    24    25    1
    26    25    26   ar
    27    26    27   ar
    28    27    28   ar
    29    28    29   ar
    30    29    30   ar
    31    30    25   ar
    32    23    31   am
    33    31    13   am
    34    31    32    2
    35    11    33    1
    36    33    34    1
    37    34     8    1
    38     5    35    1
    39    35     2    1
    40    16    36    1
    41     1    37    1
    42     1    38    1
    43     1    39    1
    44     3    40    1
    45     4    41    1
    46     9    42    1
    47     9    43    1
    48    10    44    1
    49    10    45    1
    50    12    46    1
    51    12    47    1
    52    18    48    1
    53    19    49    1
    54    20    50    1
    55    21    51    1
    56    22    52    1
    57    24    53    1
    58    24    54    1
    59    26    55    1
    60    27    56    1
    61    28    57    1
    62    29    58    1
    63    30    59    1
    64    33    60    1
    65    33    61    1
    66    34    62    1
    67    34    63    1
