@<TRIPOS>MOLECULE

  23   25
SMALL
USER_CHARGES
@<TRIPOS>ATOM
   1 I1           7.2648     0.9944     1.0008 I            1    LIG   0.0000
   2 C2           5.1149     0.9984     1.0018 C.ar         1    LIG   0.0000
   3 C3           4.4294    -0.2114     1.0498 C.ar         1    LIG   0.0000
   4 C4           3.0385    -0.2077     1.0490 C.ar         1    LIG   0.0000
   5 C5           2.3502     1.0000     1.0000 C.ar         1    LIG   0.0000
   6 O6           1.0000     1.0000     1.0000 O.3          1    LIG   0.0000
   7 C7           0.4174     2.2205     0.9505 C.2          1    LIG   0.0000
   8 C8           0.1371     2.7682    -0.3285 C.2          1    LIG   0.0000
   9 C9          -0.4509     4.0050    -0.3827 C.2          1    LIG   0.0000
  10 C10         -0.7690     4.7201     0.8037 C.2          1    LIG   0.0000
  11 N11         -1.3164     5.8882     1.0619 N.2          1    LIG   0.0000
  12 N12         -1.3592     6.0367     2.3680 N.2          1    LIG   0.0000
  13 N13         -0.8598     5.0021     2.8949 N.2          1    LIG   0.0000
  14 N14         -0.4709     4.1314     1.9827 N.pl3        1    LIG   0.0000
  15 N15          0.0990     2.9321     2.0246 N.2          1    LIG   0.0000
  16 C16          3.0372     2.2085     0.9513 C.ar         1    LIG   0.0000
  17 C17          4.4283     2.2075     0.9519 C.ar         1    LIG   0.0000
  18 H            4.9319    -1.0753     1.0846 H            1    LIG   0.0000
  19 H            2.5348    -1.0709     1.0836 H            1    LIG   0.0000
  20 H            0.3618     2.2673    -1.1643 H            1    LIG   0.0000
  21 H           -0.6598     4.4112    -1.2722 H            1    LIG   0.0000
  22 H            2.5344     3.0722     0.9160 H            1    LIG   0.0000
  23 H            4.9319     3.0708     0.9168 H            1    LIG   0.0000
@<TRIPOS>BOND
   1        1        2 1
   2        2        3 ar
   3        3        4 ar
   4        4        5 ar
   5        5        6 1
   6        6        7 1
   7        7        8 1
   8        8        9 2
   9        9       10 1
  10       10       11 2
  11       11       12 1
  12       12       13 2
  13       13       14 1
  14       14       10 1
  15       14       15 1
  16       15        7 2
  17        5       16 ar
  18       16       17 ar
  19       17        2 ar
  20        3       18 1
  21        4       19 1
  22        8       20 1
  23        9       21 1
  24       16       22 1
  25       17       23 1

@<TRIPOS>MOLECULE

  23   25
SMALL
USER_CHARGES
@<TRIPOS>ATOM
   1 I1           7.2648     0.9944     1.0008 I            1    LIG   0.0000
   2 C2           5.1149     0.9984     1.0018 C.ar         1    LIG   0.0000
   3 C3           4.4294    -0.2114     1.0498 C.ar         1    LIG   0.0000
   4 C4           3.0385    -0.2077     1.0490 C.ar         1    LIG   0.0000
   5 C5           2.3502     1.0000     1.0000 C.ar         1    LIG   0.0000
   6 O6           1.0000     1.0000     1.0000 O.3          1    LIG   0.0000
   7 C7           0.4174     2.2205     0.9505 C.2          1    LIG   0.0000
   8 C8           0.1281     2.8658     2.1810 C.2          1    LIG   0.0000
   9 C9          -0.4639     4.1010     2.1348 C.2          1    LIG   0.0000
  10 C10         -0.7816     4.7178     0.8944 C.2          1    LIG   0.0000
  11 N11         -1.3360     5.8578     0.5425 N.2          1    LIG   0.0000
  12 N12         -1.3832     5.8978    -0.7712 N.2          1    LIG   0.0000
  13 N13         -0.8775     4.8269    -1.2126 N.2          1    LIG   0.0000
  14 N14         -0.4749     4.0396    -0.2332 N.pl3        1    LIG   0.0000
  15 N15          0.0990     2.8427    -0.1779 N.2          1    LIG   0.0000
  16 C16          3.0372     2.2085     0.9513 C.ar         1    LIG   0.0000
  17 C17          4.4283     2.2075     0.9519 C.ar         1    LIG   0.0000
  18 H            4.9319    -1.0753     1.0846 H            1    LIG   0.0000
  19 H            2.5348    -1.0709     1.0836 H            1    LIG   0.0000
  20 H            0.3494     2.4326     3.0547 H            1    LIG   0.0000
  21 H           -0.6759     4.5765     2.9886 H            1    LIG   0.0000
  22 H            2.5344     3.0722     0.9160 H            1    LIG   0.0000
  23 H            4.9319     3.0708     0.9168 H            1    LIG   0.0000
@<TRIPOS>BOND
   1        1        2 1
   2        2        3 ar
   3        3        4 ar
   4        4        5 ar
   5        5        6 1
   6        6        7 1
   7        7        8 1
   8        8        9 2
   9        9       10 1
  10       10       11 2
  11       11       12 1
  12       12       13 2
  13       13       14 1
  14       14       10 1
  15       14       15 1
  16       15        7 2
  17        5       16 ar
  18       16       17 ar
  19       17        2 ar
  20        3       18 1
  21        4       19 1
  22        8       20 1
  23        9       21 1
  24       16       22 1
  25       17       23 1

@<TRIPOS>MOLECULE

  23   25
SMALL
USER_CHARGES
@<TRIPOS>ATOM
   1 I1           7.2648     0.9955     0.9966 I            1    LIG   0.0000
   2 C2           5.1149     0.9976     1.0001 C.ar         1    LIG   0.0000
   3 C3           4.4294     0.1082     0.1786 C.ar         1    LIG   0.0000
   4 C4           3.0385     0.1114     0.1807 C.ar         1    LIG   0.0000
   5 C5           2.3502     1.0000     1.0000 C.ar         1    LIG   0.0000
   6 O6           1.0000     1.0000     1.0000 O.3          1    LIG   0.0000
   7 C7           0.4174     2.2205     0.9505 C.2          1    LIG   0.0000
   8 C8           1.1992     3.3081     0.4812 C.2          1    LIG   0.0000
   9 C9           0.6132     4.5460     0.4316 C.2          1    LIG   0.0000
  10 C10         -0.7348     4.7379     0.8393 C.2          1    LIG   0.0000
  11 N11         -1.5435     5.7735     0.9055 N.2          1    LIG   0.0000
  12 N12         -2.6996     5.3565     1.3735 N.2          1    LIG   0.0000
  13 N13         -2.6091     4.1139     1.5865 N.2          1    LIG   0.0000
  14 N14         -1.4128     3.6531     1.2740 N.pl3        1    LIG   0.0000
  15 N15         -0.8358     2.4572     1.3181 N.2          1    LIG   0.0000
  16 C16          3.0372     1.8890     1.8201 C.ar         1    LIG   0.0000
  17 C17          4.4283     1.8878     1.8199 C.ar         1    LIG   0.0000
  18 H            4.9319    -0.5273    -0.4076 H            1    LIG   0.0000
  19 H            2.5348    -0.5234    -0.4052 H            1    LIG   0.0000
  20 H            2.1483     3.1753     0.1955 H            1    LIG   0.0000
  21 H            1.1432     5.3277     0.1029 H            1    LIG   0.0000
  22 H            2.5344     2.5247     2.4059 H            1    LIG   0.0000
  23 H            4.9319     2.5231     2.4054 H            1    LIG   0.0000
@<TRIPOS>BOND
   1        1        2 1
   2        2        3 ar
   3        3        4 ar
   4        4        5 ar
   5        5        6 1
   6        6        7 1
   7        7        8 1
   8        8        9 2
   9        9       10 1
  10       10       11 2
  11       11       12 1
  12       12       13 2
  13       13       14 1
  14       14       10 1
  15       14       15 1
  16       15        7 2
  17        5       16 ar
  18       16       17 ar
  19       17        2 ar
  20        3       18 1
  21        4       19 1
  22        8       20 1
  23        9       21 1
  24       16       22 1
  25       17       23 1

@<TRIPOS>MOLECULE

  23   25
SMALL
USER_CHARGES
@<TRIPOS>ATOM
   1 I1           7.2648     0.9955     0.9966 I            1    LIG   0.0000
   2 C2           5.1149     0.9976     1.0001 C.ar         1    LIG   0.0000
   3 C3           4.4294     0.1082     0.1786 C.ar         1    LIG   0.0000
   4 C4           3.0385     0.1114     0.1807 C.ar         1    LIG   0.0000
   5 C5           2.3502     1.0000     1.0000 C.ar         1    LIG   0.0000
   6 O6           1.0000     1.0000     1.0000 O.3          1    LIG   0.0000
   7 C7           0.4174     2.2205     0.9505 C.2          1    LIG   0.0000
   8 C8           0.1371     2.7682    -0.3285 C.2          1    LIG   0.0000
   9 C9          -0.4509     4.0050    -0.3827 C.2          1    LIG   0.0000
  10 C10         -0.7690     4.7201     0.8037 C.2          1    LIG   0.0000
  11 N11         -1.3164     5.8882     1.0619 N.2          1    LIG   0.0000
  12 N12         -1.3592     6.0367     2.3680 N.2          1    LIG   0.0000
  13 N13         -0.8598     5.0021     2.8949 N.2          1    LIG   0.0000
  14 N14         -0.4709     4.1314     1.9827 N.pl3        1    LIG   0.0000
  15 N15          0.0990     2.9321     2.0246 N.2          1    LIG   0.0000
  16 C16          3.0372     1.8890     1.8201 C.ar         1    LIG   0.0000
  17 C17          4.4283     1.8878     1.8199 C.ar         1    LIG   0.0000
  18 H            4.9319    -0.5273    -0.4076 H            1    LIG   0.0000
  19 H            2.5348    -0.5234    -0.4052 H            1    LIG   0.0000
  20 H            0.3618     2.2673    -1.1643 H            1    LIG   0.0000
  21 H           -0.6598     4.4112    -1.2722 H            1    LIG   0.0000
  22 H            2.5344     2.5247     2.4059 H            1    LIG   0.0000
  23 H            4.9319     2.5231     2.4054 H            1    LIG   0.0000
@<TRIPOS>BOND
   1        1        2 1
   2        2        3 ar
   3        3        4 ar
   4        4        5 ar
   5        5        6 1
   6        6        7 1
   7        7        8 1
   8        8        9 2
   9        9       10 1
  10       10       11 2
  11       11       12 1
  12       12       13 2
  13       13       14 1
  14       14       10 1
  15       14       15 1
  16       15        7 2
  17        5       16 ar
  18       16       17 ar
  19       17        2 ar
  20        3       18 1
  21        4       19 1
  22        8       20 1
  23        9       21 1
  24       16       22 1
  25       17       23 1

@<TRIPOS>MOLECULE

  23   25
SMALL
USER_CHARGES
@<TRIPOS>ATOM
   1 I1           7.2648     0.9955     0.9966 I            1    LIG   0.0000
   2 C2           5.1149     0.9976     1.0001 C.ar         1    LIG   0.0000
   3 C3           4.4294     0.1082     0.1786 C.ar         1    LIG   0.0000
   4 C4           3.0385     0.1114     0.1807 C.ar         1    LIG   0.0000
   5 C5           2.3502     1.0000     1.0000 C.ar         1    LIG   0.0000
   6 O6           1.0000     1.0000     1.0000 O.3          1    LIG   0.0000
   7 C7           0.4174     2.2205     0.9505 C.2          1    LIG   0.0000
   8 C8           0.1281     2.8658     2.1810 C.2          1    LIG   0.0000
   9 C9          -0.4639     4.1010     2.1348 C.2          1    LIG   0.0000
  10 C10         -0.7816     4.7178     0.8944 C.2          1    LIG   0.0000
  11 N11         -1.3360     5.8578     0.5425 N.2          1    LIG   0.0000
  12 N12         -1.3832     5.8978    -0.7712 N.2          1    LIG   0.0000
  13 N13         -0.8775     4.8269    -1.2126 N.2          1    LIG   0.0000
  14 N14         -0.4749     4.0396    -0.2332 N.pl3        1    LIG   0.0000
  15 N15          0.0990     2.8427    -0.1779 N.2          1    LIG   0.0000
  16 C16          3.0372     1.8890     1.8201 C.ar         1    LIG   0.0000
  17 C17          4.4283     1.8878     1.8199 C.ar         1    LIG   0.0000
  18 H            4.9319    -0.5273    -0.4076 H            1    LIG   0.0000
  19 H            2.5348    -0.5234    -0.4052 H            1    LIG   0.0000
  20 H            0.3494     2.4326     3.0547 H            1    LIG   0.0000
  21 H           -0.6759     4.5765     2.9886 H            1    LIG   0.0000
  22 H            2.5344     2.5247     2.4059 H            1    LIG   0.0000
  23 H            4.9319     2.5231     2.4054 H            1    LIG   0.0000
@<TRIPOS>BOND
   1        1        2 1
   2        2        3 ar
   3        3        4 ar
   4        4        5 ar
   5        5        6 1
   6        6        7 1
   7        7        8 1
   8        8        9 2
   9        9       10 1
  10       10       11 2
  11       11       12 1
  12       12       13 2
  13       13       14 1
  14       14       10 1
  15       14       15 1
  16       15        7 2
  17        5       16 ar
  18       16       17 ar
  19       17        2 ar
  20        3       18 1
  21        4       19 1
  22        8       20 1
  23        9       21 1
  24       16       22 1
  25       17       23 1

@<TRIPOS>MOLECULE

  23   25
SMALL
USER_CHARGES
@<TRIPOS>ATOM
   1 I1           7.2648     0.9955     0.9966 I            1    LIG   0.0000
   2 C2           5.1149     0.9976     1.0001 C.ar         1    LIG   0.0000
   3 C3           4.4294     0.1082     0.1786 C.ar         1    LIG   0.0000
   4 C4           3.0385     0.1114     0.1807 C.ar         1    LIG   0.0000
   5 C5           2.3502     1.0000     1.0000 C.ar         1    LIG   0.0000
   6 O6           1.0000     1.0000     1.0000 O.3          1    LIG   0.0000
   7 C7           0.4174     2.2205     0.9505 C.2          1    LIG   0.0000
   8 C8          -1.0008     2.2767     0.9432 C.2          1    LIG   0.0000
   9 C9          -1.5943     3.5108     0.8909 C.2          1    LIG   0.0000
  10 C10         -0.8161     4.6992     0.8429 C.2          1    LIG   0.0000
  11 N11         -1.0915     5.9845     0.7868 N.2          1    LIG   0.0000
  12 N12          0.0468     6.6425     0.7576 N.2          1    LIG   0.0000
  13 N13          0.9867     5.7983     0.7954 N.2          1    LIG   0.0000
  14 N14          0.5279     4.5624     0.8532 N.pl3        1    LIG   0.0000
  15 N15          1.0938     3.3615     0.9041 N.2          1    LIG   0.0000
  16 C16          3.0372     1.8890     1.8201 C.ar         1    LIG   0.0000
  17 C17          4.4283     1.8878     1.8199 C.ar         1    LIG   0.0000
  18 H            4.9319    -0.5273    -0.4076 H            1    LIG   0.0000
  19 H            2.5348    -0.5234    -0.4052 H            1    LIG   0.0000
  20 H           -1.5499     1.4415     0.9752 H            1    LIG   0.0000
  21 H           -2.5922     3.5764     0.8865 H            1    LIG   0.0000
  22 H            2.5344     2.5247     2.4059 H            1    LIG   0.0000
  23 H            4.9319     2.5231     2.4054 H            1    LIG   0.0000
@<TRIPOS>BOND
   1        1        2 1
   2        2        3 ar
   3        3        4 ar
   4        4        5 ar
   5        5        6 1
   6        6        7 1
   7        7        8 1
   8        8        9 2
   9        9       10 1
  10       10       11 2
  11       11       12 1
  12       12       13 2
  13       13       14 1
  14       14       10 1
  15       14       15 1
  16       15        7 2
  17        5       16 ar
  18       16       17 ar
  19       17        2 ar
  20        3       18 1
  21        4       19 1
  22        8       20 1
  23        9       21 1
  24       16       22 1
  25       17       23 1

@<TRIPOS>MOLECULE

  23   25
SMALL
USER_CHARGES
@<TRIPOS>ATOM
   1 I1           7.2648     0.9966     1.0045 I            1    LIG   0.0000
   2 C2           5.1149     1.0001     1.0024 C.ar         1    LIG   0.0000
   3 C3           4.4294     0.1786     1.8918 C.ar         1    LIG   0.0000
   4 C4           3.0385     0.1807     1.8886 C.ar         1    LIG   0.0000
   5 C5           2.3502     1.0000     1.0000 C.ar         1    LIG   0.0000
   6 O6           1.0000     1.0000     1.0000 O.3          1    LIG   0.0000
   7 C7           0.4174     2.2205     0.9505 C.2          1    LIG   0.0000
   8 C8           1.1961     3.3415     1.3395 C.2          1    LIG   0.0000
   9 C9           0.6088     4.5788     1.2927 C.2          1    LIG   0.0000
  10 C10         -0.7391     4.7371     0.8703 C.2          1    LIG   0.0000
  11 N11         -1.5502     5.7631     0.7278 N.2          1    LIG   0.0000
  12 N12         -2.7079     5.3090     0.2998 N.2          1    LIG   0.0000
  13 N13         -2.6152     4.0540     0.1816 N.2          1    LIG   0.0000
  14 N14         -1.4141     3.6217     0.5161 N.pl3        1    LIG   0.0000
  15 N15         -0.8358     2.4266     0.5648 N.2          1    LIG   0.0000
  16 C16          3.0372     1.8201     0.1110 C.ar         1    LIG   0.0000
  17 C17          4.4283     1.8199     0.1122 C.ar         1    LIG   0.0000
  18 H            4.9319    -0.4076     2.5273 H            1    LIG   0.0000
  19 H            2.5348    -0.4052     2.5234 H            1    LIG   0.0000
  20 H            2.1440     3.2318     1.6385 H            1    LIG   0.0000
  21 H            1.1377     5.3842     1.5602 H            1    LIG   0.0000
  22 H            2.5344     2.4059    -0.5247 H            1    LIG   0.0000
  23 H            4.9319     2.4054    -0.5231 H            1    LIG   0.0000
@<TRIPOS>BOND
   1        1        2 1
   2        2        3 ar
   3        3        4 ar
   4        4        5 ar
   5        5        6 1
   6        6        7 1
   7        7        8 1
   8        8        9 2
   9        9       10 1
  10       10       11 2
  11       11       12 1
  12       12       13 2
  13       13       14 1
  14       14       10 1
  15       14       15 1
  16       15        7 2
  17        5       16 ar
  18       16       17 ar
  19       17        2 ar
  20        3       18 1
  21        4       19 1
  22        8       20 1
  23        9       21 1
  24       16       22 1
  25       17       23 1

@<TRIPOS>MOLECULE

  23   25
SMALL
USER_CHARGES
@<TRIPOS>ATOM
   1 I1           7.2648     0.9966     1.0045 I            1    LIG   0.0000
   2 C2           5.1149     1.0001     1.0024 C.ar         1    LIG   0.0000
   3 C3           4.4294     0.1786     1.8918 C.ar         1    LIG   0.0000
   4 C4           3.0385     0.1807     1.8886 C.ar         1    LIG   0.0000
   5 C5           2.3502     1.0000     1.0000 C.ar         1    LIG   0.0000
   6 O6           1.0000     1.0000     1.0000 O.3          1    LIG   0.0000
   7 C7           0.4174     2.2205     0.9505 C.2          1    LIG   0.0000
   8 C8           0.1371     2.7682    -0.3285 C.2          1    LIG   0.0000
   9 C9          -0.4509     4.0050    -0.3827 C.2          1    LIG   0.0000
  10 C10         -0.7690     4.7201     0.8037 C.2          1    LIG   0.0000
  11 N11         -1.3164     5.8882     1.0619 N.2          1    LIG   0.0000
  12 N12         -1.3592     6.0367     2.3680 N.2          1    LIG   0.0000
  13 N13         -0.8598     5.0021     2.8949 N.2          1    LIG   0.0000
  14 N14         -0.4709     4.1314     1.9827 N.pl3        1    LIG   0.0000
  15 N15          0.0990     2.9321     2.0246 N.2          1    LIG   0.0000
  16 C16          3.0372     1.8201     0.1110 C.ar         1    LIG   0.0000
  17 C17          4.4283     1.8199     0.1122 C.ar         1    LIG   0.0000
  18 H            4.9319    -0.4076     2.5273 H            1    LIG   0.0000
  19 H            2.5348    -0.4052     2.5234 H            1    LIG   0.0000
  20 H            0.3618     2.2673    -1.1643 H            1    LIG   0.0000
  21 H           -0.6598     4.4112    -1.2722 H            1    LIG   0.0000
  22 H            2.5344     2.4059    -0.5247 H            1    LIG   0.0000
  23 H            4.9319     2.4054    -0.5231 H            1    LIG   0.0000
@<TRIPOS>BOND
   1        1        2 1
   2        2        3 ar
   3        3        4 ar
   4        4        5 ar
   5        5        6 1
   6        6        7 1
   7        7        8 1
   8        8        9 2
   9        9       10 1
  10       10       11 2
  11       11       12 1
  12       12       13 2
  13       13       14 1
  14       14       10 1
  15       14       15 1
  16       15        7 2
  17        5       16 ar
  18       16       17 ar
  19       17        2 ar
  20        3       18 1
  21        4       19 1
  22        8       20 1
  23        9       21 1
  24       16       22 1
  25       17       23 1

@<TRIPOS>MOLECULE

  23   25
SMALL
USER_CHARGES
@<TRIPOS>ATOM
   1 I1           7.2648     0.9966     1.0045 I            1    LIG   0.0000
   2 C2           5.1149     1.0001     1.0024 C.ar         1    LIG   0.0000
   3 C3           4.4294     0.1786     1.8918 C.ar         1    LIG   0.0000
   4 C4           3.0385     0.1807     1.8886 C.ar         1    LIG   0.0000
   5 C5           2.3502     1.0000     1.0000 C.ar         1    LIG   0.0000
   6 O6           1.0000     1.0000     1.0000 O.3          1    LIG   0.0000
   7 C7           0.4174     2.2205     0.9505 C.2          1    LIG   0.0000
   8 C8           0.1281     2.8658     2.1810 C.2          1    LIG   0.0000
   9 C9          -0.4639     4.1010     2.1348 C.2          1    LIG   0.0000
  10 C10         -0.7816     4.7178     0.8944 C.2          1    LIG   0.0000
  11 N11         -1.3360     5.8578     0.5425 N.2          1    LIG   0.0000
  12 N12         -1.3832     5.8978    -0.7712 N.2          1    LIG   0.0000
  13 N13         -0.8775     4.8269    -1.2126 N.2          1    LIG   0.0000
  14 N14         -0.4749     4.0396    -0.2332 N.pl3        1    LIG   0.0000
  15 N15          0.0990     2.8427    -0.1779 N.2          1    LIG   0.0000
  16 C16          3.0372     1.8201     0.1110 C.ar         1    LIG   0.0000
  17 C17          4.4283     1.8199     0.1122 C.ar         1    LIG   0.0000
  18 H            4.9319    -0.4076     2.5273 H            1    LIG   0.0000
  19 H            2.5348    -0.4052     2.5234 H            1    LIG   0.0000
  20 H            0.3494     2.4326     3.0547 H            1    LIG   0.0000
  21 H           -0.6759     4.5765     2.9886 H            1    LIG   0.0000
  22 H            2.5344     2.4059    -0.5247 H            1    LIG   0.0000
  23 H            4.9319     2.4054    -0.5231 H            1    LIG   0.0000
@<TRIPOS>BOND
   1        1        2 1
   2        2        3 ar
   3        3        4 ar
   4        4        5 ar
   5        5        6 1
   6        6        7 1
   7        7        8 1
   8        8        9 2
   9        9       10 1
  10       10       11 2
  11       11       12 1
  12       12       13 2
  13       13       14 1
  14       14       10 1
  15       14       15 1
  16       15        7 2
  17        5       16 ar
  18       16       17 ar
  19       17        2 ar
  20        3       18 1
  21        4       19 1
  22        8       20 1
  23        9       21 1
  24       16       22 1
  25       17       23 1

@<TRIPOS>MOLECULE

  23   25
SMALL
USER_CHARGES
@<TRIPOS>ATOM
   1 I1           7.2648     0.9966     1.0045 I            1    LIG   0.0000
   2 C2           5.1149     1.0001     1.0024 C.ar         1    LIG   0.0000
   3 C3           4.4294     0.1786     1.8918 C.ar         1    LIG   0.0000
   4 C4           3.0385     0.1807     1.8886 C.ar         1    LIG   0.0000
   5 C5           2.3502     1.0000     1.0000 C.ar         1    LIG   0.0000
   6 O6           1.0000     1.0000     1.0000 O.3          1    LIG   0.0000
   7 C7           0.4174     2.2205     0.9505 C.2          1    LIG   0.0000
   8 C8          -1.0008     2.2767     0.9432 C.2          1    LIG   0.0000
   9 C9          -1.5943     3.5108     0.8909 C.2          1    LIG   0.0000
  10 C10         -0.8161     4.6992     0.8429 C.2          1    LIG   0.0000
  11 N11         -1.0915     5.9845     0.7868 N.2          1    LIG   0.0000
  12 N12          0.0468     6.6425     0.7576 N.2          1    LIG   0.0000
  13 N13          0.9867     5.7983     0.7954 N.2          1    LIG   0.0000
  14 N14          0.5279     4.5624     0.8532 N.pl3        1    LIG   0.0000
  15 N15          1.0938     3.3615     0.9041 N.2          1    LIG   0.0000
  16 C16          3.0372     1.8201     0.1110 C.ar         1    LIG   0.0000
  17 C17          4.4283     1.8199     0.1122 C.ar         1    LIG   0.0000
  18 H            4.9319    -0.4076     2.5273 H            1    LIG   0.0000
  19 H            2.5348    -0.4052     2.5234 H            1    LIG   0.0000
  20 H           -1.5499     1.4415     0.9752 H            1    LIG   0.0000
  21 H           -2.5922     3.5764     0.8865 H            1    LIG   0.0000
  22 H            2.5344     2.4059    -0.5247 H            1    LIG   0.0000
  23 H            4.9319     2.4054    -0.5231 H            1    LIG   0.0000
@<TRIPOS>BOND
   1        1        2 1
   2        2        3 ar
   3        3        4 ar
   4        4        5 ar
   5        5        6 1
   6        6        7 1
   7        7        8 1
   8        8        9 2
   9        9       10 1
  10       10       11 2
  11       11       12 1
  12       12       13 2
  13       13       14 1
  14       14       10 1
  15       14       15 1
  16       15        7 2
  17        5       16 ar
  18       16       17 ar
  19       17        2 ar
  20        3       18 1
  21        4       19 1
  22        8       20 1
  23        9       21 1
  24       16       22 1
  25       17       23 1

@<TRIPOS>MOLECULE

  23   25
SMALL
USER_CHARGES
@<TRIPOS>ATOM
   1 I1           7.2648     1.0008     1.0056 I            1    LIG   0.0000
   2 C2           5.1149     1.0018     1.0016 C.ar         1    LIG   0.0000
   3 C3           4.4294     1.0498     2.2114 C.ar         1    LIG   0.0000
   4 C4           3.0385     1.0490     2.2077 C.ar         1    LIG   0.0000
   5 C5           2.3502     1.0000     1.0000 C.ar         1    LIG   0.0000
   6 O6           1.0000     1.0000     1.0000 O.3          1    LIG   0.0000
   7 C7           0.4174     2.2205     0.9505 C.2          1    LIG   0.0000
   8 C8           1.2660     3.3574     0.9093 C.2          1    LIG   0.0000
   9 C9           0.6796     4.5951     0.8612 C.2          1    LIG   0.0000
  10 C10         -0.7345     4.7387     0.8552 C.2          1    LIG   0.0000
  11 N11         -1.5610     5.7616     0.8176 N.2          1    LIG   0.0000
  12 N12         -2.7893     5.2920     0.8391 N.2          1    LIG   0.0000
  13 N13         -2.7240     4.0306     0.8868 N.2          1    LIG   0.0000
  14 N14         -1.4738     3.6086     0.8963 N.pl3        1    LIG   0.0000
  15 N15         -0.8958     2.4133     0.9426 N.2          1    LIG   0.0000
  16 C16          3.0372     0.9513    -0.2085 C.ar         1    LIG   0.0000
  17 C17          4.4283     0.9519    -0.2075 C.ar         1    LIG   0.0000
  18 H            4.9319     1.0846     3.0753 H            1    LIG   0.0000
  19 H            2.5348     1.0836     3.0709 H            1    LIG   0.0000
  20 H            2.2611     3.2583     0.9152 H            1    LIG   0.0000
  21 H            1.2565     5.4113     0.8299 H            1    LIG   0.0000
  22 H            2.5344     0.9160    -1.0722 H            1    LIG   0.0000
  23 H            4.9319     0.9168    -1.0708 H            1    LIG   0.0000
@<TRIPOS>BOND
   1        1        2 1
   2        2        3 ar
   3        3        4 ar
   4        4        5 ar
   5        5        6 1
   6        6        7 1
   7        7        8 1
   8        8        9 2
   9        9       10 1
  10       10       11 2
  11       11       12 1
  12       12       13 2
  13       13       14 1
  14       14       10 1
  15       14       15 1
  16       15        7 2
  17        5       16 ar
  18       16       17 ar
  19       17        2 ar
  20        3       18 1
  21        4       19 1
  22        8       20 1
  23        9       21 1
  24       16       22 1
  25       17       23 1

@<TRIPOS>MOLECULE

  23   25
SMALL
USER_CHARGES
@<TRIPOS>ATOM
   1 I1           7.2648     1.0008     1.0056 I            1    LIG   0.0000
   2 C2           5.1149     1.0018     1.0016 C.ar         1    LIG   0.0000
   3 C3           4.4294     1.0498     2.2114 C.ar         1    LIG   0.0000
   4 C4           3.0385     1.0490     2.2077 C.ar         1    LIG   0.0000
   5 C5           2.3502     1.0000     1.0000 C.ar         1    LIG   0.0000
   6 O6           1.0000     1.0000     1.0000 O.3          1    LIG   0.0000
   7 C7           0.4174     2.2205     0.9505 C.2          1    LIG   0.0000
   8 C8           0.1371     2.7682    -0.3285 C.2          1    LIG   0.0000
   9 C9          -0.4509     4.0050    -0.3827 C.2          1    LIG   0.0000
  10 C10         -0.7690     4.7201     0.8037 C.2          1    LIG   0.0000
  11 N11         -1.3164     5.8882     1.0619 N.2          1    LIG   0.0000
  12 N12         -1.3592     6.0367     2.3680 N.2          1    LIG   0.0000
  13 N13         -0.8598     5.0021     2.8949 N.2          1    LIG   0.0000
  14 N14         -0.4709     4.1314     1.9827 N.pl3        1    LIG   0.0000
  15 N15          0.0990     2.9321     2.0246 N.2          1    LIG   0.0000
  16 C16          3.0372     0.9513    -0.2085 C.ar         1    LIG   0.0000
  17 C17          4.4283     0.9519    -0.2075 C.ar         1    LIG   0.0000
  18 H            4.9319     1.0846     3.0753 H            1    LIG   0.0000
  19 H            2.5348     1.0836     3.0709 H            1    LIG   0.0000
  20 H            0.3618     2.2673    -1.1643 H            1    LIG   0.0000
  21 H           -0.6598     4.4112    -1.2722 H            1    LIG   0.0000
  22 H            2.5344     0.9160    -1.0722 H            1    LIG   0.0000
  23 H            4.9319     0.9168    -1.0708 H            1    LIG   0.0000
@<TRIPOS>BOND
   1        1        2 1
   2        2        3 ar
   3        3        4 ar
   4        4        5 ar
   5        5        6 1
   6        6        7 1
   7        7        8 1
   8        8        9 2
   9        9       10 1
  10       10       11 2
  11       11       12 1
  12       12       13 2
  13       13       14 1
  14       14       10 1
  15       14       15 1
  16       15        7 2
  17        5       16 ar
  18       16       17 ar
  19       17        2 ar
  20        3       18 1
  21        4       19 1
  22        8       20 1
  23        9       21 1
  24       16       22 1
  25       17       23 1

@<TRIPOS>MOLECULE

  23   25
SMALL
USER_CHARGES
@<TRIPOS>ATOM
   1 I1           7.2648     1.0008     1.0056 I            1    LIG   0.0000
   2 C2           5.1149     1.0018     1.0016 C.ar         1    LIG   0.0000
   3 C3           4.4294     1.0498     2.2114 C.ar         1    LIG   0.0000
   4 C4           3.0385     1.0490     2.2077 C.ar         1    LIG   0.0000
   5 C5           2.3502     1.0000     1.0000 C.ar         1    LIG   0.0000
   6 O6           1.0000     1.0000     1.0000 O.3          1    LIG   0.0000
   7 C7           0.4174     2.2205     0.9505 C.2          1    LIG   0.0000
   8 C8           0.1281     2.8658     2.1810 C.2          1    LIG   0.0000
   9 C9          -0.4639     4.1010     2.1348 C.2          1    LIG   0.0000
  10 C10         -0.7816     4.7178     0.8944 C.2          1    LIG   0.0000
  11 N11         -1.3360     5.8578     0.5425 N.2          1    LIG   0.0000
  12 N12         -1.3832     5.8978    -0.7712 N.2          1    LIG   0.0000
  13 N13         -0.8775     4.8269    -1.2126 N.2          1    LIG   0.0000
  14 N14         -0.4749     4.0396    -0.2332 N.pl3        1    LIG   0.0000
  15 N15          0.0990     2.8427    -0.1779 N.2          1    LIG   0.0000
  16 C16          3.0372     0.9513    -0.2085 C.ar         1    LIG   0.0000
  17 C17          4.4283     0.9519    -0.2075 C.ar         1    LIG   0.0000
  18 H            4.9319     1.0846     3.0753 H            1    LIG   0.0000
  19 H            2.5348     1.0836     3.0709 H            1    LIG   0.0000
  20 H            0.3494     2.4326     3.0547 H            1    LIG   0.0000
  21 H           -0.6759     4.5765     2.9886 H            1    LIG   0.0000
  22 H            2.5344     0.9160    -1.0722 H            1    LIG   0.0000
  23 H            4.9319     0.9168    -1.0708 H            1    LIG   0.0000
@<TRIPOS>BOND
   1        1        2 1
   2        2        3 ar
   3        3        4 ar
   4        4        5 ar
   5        5        6 1
   6        6        7 1
   7        7        8 1
   8        8        9 2
   9        9       10 1
  10       10       11 2
  11       11       12 1
  12       12       13 2
  13       13       14 1
  14       14       10 1
  15       14       15 1
  16       15        7 2
  17        5       16 ar
  18       16       17 ar
  19       17        2 ar
  20        3       18 1
  21        4       19 1
  22        8       20 1
  23        9       21 1
  24       16       22 1
  25       17       23 1

@<TRIPOS>MOLECULE

  23   25
SMALL
USER_CHARGES
@<TRIPOS>ATOM
   1 I1           7.2648     1.0008     1.0056 I            1    LIG   0.0000
   2 C2           5.1149     1.0018     1.0016 C.ar         1    LIG   0.0000
   3 C3           4.4294     1.0498     2.2114 C.ar         1    LIG   0.0000
   4 C4           3.0385     1.0490     2.2077 C.ar         1    LIG   0.0000
   5 C5           2.3502     1.0000     1.0000 C.ar         1    LIG   0.0000
   6 O6           1.0000     1.0000     1.0000 O.3          1    LIG   0.0000
   7 C7           0.4174     2.2205     0.9505 C.2          1    LIG   0.0000
   8 C8          -1.0008     2.2767     0.9432 C.2          1    LIG   0.0000
   9 C9          -1.5943     3.5108     0.8909 C.2          1    LIG   0.0000
  10 C10         -0.8161     4.6992     0.8429 C.2          1    LIG   0.0000
  11 N11         -1.0915     5.9845     0.7868 N.2          1    LIG   0.0000
  12 N12          0.0468     6.6425     0.7576 N.2          1    LIG   0.0000
  13 N13          0.9867     5.7983     0.7954 N.2          1    LIG   0.0000
  14 N14          0.5279     4.5624     0.8532 N.pl3        1    LIG   0.0000
  15 N15          1.0938     3.3615     0.9041 N.2          1    LIG   0.0000
  16 C16          3.0372     0.9513    -0.2085 C.ar         1    LIG   0.0000
  17 C17          4.4283     0.9519    -0.2075 C.ar         1    LIG   0.0000
  18 H            4.9319     1.0846     3.0753 H            1    LIG   0.0000
  19 H            2.5348     1.0836     3.0709 H            1    LIG   0.0000
  20 H           -1.5499     1.4415     0.9752 H            1    LIG   0.0000
  21 H           -2.5922     3.5764     0.8865 H            1    LIG   0.0000
  22 H            2.5344     0.9160    -1.0722 H            1    LIG   0.0000
  23 H            4.9319     0.9168    -1.0708 H            1    LIG   0.0000
@<TRIPOS>BOND
   1        1        2 1
   2        2        3 ar
   3        3        4 ar
   4        4        5 ar
   5        5        6 1
   6        6        7 1
   7        7        8 1
   8        8        9 2
   9        9       10 1
  10       10       11 2
  11       11       12 1
  12       12       13 2
  13       13       14 1
  14       14       10 1
  15       14       15 1
  16       15        7 2
  17        5       16 ar
  18       16       17 ar
  19       17        2 ar
  20        3       18 1
  21        4       19 1
  22        8       20 1
  23        9       21 1
  24       16       22 1
  25       17       23 1

