@<TRIPOS>MOLECULE
*****
 23 25 0 0 0
SMALL
USER_CHARGES

@<TRIPOS>ATOM
      1 I1          7.2648    0.9966    1.0045 I       1  LIG1        0.0000
      2 C2          5.1149    1.0001    1.0024 C.ar    1  LIG1        0.0000
      3 C3          4.4294    0.1786    1.8918 C.ar    1  LIG1        0.0000
      4 C4          3.0385    0.1807    1.8886 C.ar    1  LIG1        0.0000
      5 C5          2.3502    1.0000    1.0000 C.ar    1  LIG1        0.0000
      6 O6          1.0000    1.0000    1.0000 O.3     1  LIG1        0.0000
      7 C7          0.4174    2.2205    0.9505 C.2     1  LIG1        0.0000
      8 C8          0.1281    2.8658    2.1810 C.2     1  LIG1        0.0000
      9 C9         -0.4639    4.1010    2.1348 C.2     1  LIG1        0.0000
     10 C10        -0.7816    4.7178    0.8944 C.2     1  LIG1        0.0000
     11 N11        -1.3360    5.8578    0.5425 N.2     1  LIG1        0.0000
     12 N12        -1.3832    5.8978   -0.7712 N.2     1  LIG1        0.0000
     13 N13        -0.8775    4.8269   -1.2126 N.2     1  LIG1        0.0000
     14 N14        -0.4749    4.0396   -0.2332 N.pl3   1  LIG1        0.0000
     15 N15         0.0990    2.8427   -0.1779 N.2     1  LIG1        0.0000
     16 C16         3.0372    1.8201    0.1110 C.ar    1  LIG1        0.0000
     17 C17         4.4283    1.8199    0.1122 C.ar    1  LIG1        0.0000
     18 H           4.9319   -0.4076    2.5273 H       1  LIG1        0.0000
     19 H           2.5348   -0.4052    2.5234 H       1  LIG1        0.0000
     20 H           0.3494    2.4326    3.0547 H       1  LIG1        0.0000
     21 H          -0.6759    4.5765    2.9886 H       1  LIG1        0.0000
     22 H           2.5344    2.4059   -0.5247 H       1  LIG1        0.0000
     23 H           4.9319    2.4054   -0.5231 H       1  LIG1        0.0000
@<TRIPOS>BOND
     1     1     2    1
     2     2     3   ar
     3     3     4   ar
     4     4     5   ar
     5     5     6    1
     6     6     7    1
     7     7     8    1
     8     8     9    2
     9     9    10    1
    10    10    11    2
    11    11    12    1
    12    12    13    2
    13    13    14    1
    14    14    10    1
    15    14    15    1
    16    15     7    2
    17     5    16   ar
    18    16    17   ar
    19    17     2   ar
    20     3    18    1
    21     4    19    1
    22     8    20    1
    23     9    21    1
    24    16    22    1
    25    17    23    1
