@<TRIPOS>MOLECULE
*****
 23 25 0 0 0
SMALL
USER_CHARGES

@<TRIPOS>ATOM
      1 I1          7.2648    0.9966    1.0045 I       1  LIG1        0.0000
      2 C2          5.1149    1.0001    1.0024 C.ar    1  LIG1        0.0000
      3 C3          4.4294    0.1786    1.8918 C.ar    1  LIG1        0.0000
      4 C4          3.0385    0.1807    1.8886 C.ar    1  LIG1        0.0000
      5 C5          2.3502    1.0000    1.0000 C.ar    1  LIG1        0.0000
      6 O6          1.0000    1.0000    1.0000 O.3     1  LIG1        0.0000
      7 C7          0.4174    2.2205    0.9505 C.2     1  LIG1        0.0000
      8 C8         -1.0008    2.2767    0.9432 C.2     1  LIG1        0.0000
      9 C9         -1.5943    3.5108    0.8909 C.2     1  LIG1        0.0000
     10 C10        -0.8161    4.6992    0.8429 C.2     1  LIG1        0.0000
     11 N11        -1.0915    5.9845    0.7868 N.2     1  LIG1        0.0000
     12 N12         0.0468    6.6425    0.7576 N.2     1  LIG1        0.0000
     13 N13         0.9867    5.7983    0.7954 N.2     1  LIG1        0.0000
     14 N14         0.5279    4.5624    0.8532 N.pl3   1  LIG1        0.0000
     15 N15         1.0938    3.3615    0.9041 N.2     1  LIG1        0.0000
     16 C16         3.0372    1.8201    0.1110 C.ar    1  LIG1        0.0000
     17 C17         4.4283    1.8199    0.1122 C.ar    1  LIG1        0.0000
     18 H           4.9319   -0.4076    2.5273 H       1  LIG1        0.0000
     19 H           2.5348   -0.4052    2.5234 H       1  LIG1        0.0000
     20 H          -1.5499    1.4415    0.9752 H       1  LIG1        0.0000
     21 H          -2.5922    3.5764    0.8865 H       1  LIG1        0.0000
     22 H           2.5344    2.4059   -0.5247 H       1  LIG1        0.0000
     23 H           4.9319    2.4054   -0.5231 H       1  LIG1        0.0000
@<TRIPOS>BOND
     1     1     2    1
     2     2     3   ar
     3     3     4   ar
     4     4     5   ar
     5     5     6    1
     6     6     7    1
     7     7     8    1
     8     8     9    2
     9     9    10    1
    10    10    11    2
    11    11    12    1
    12    12    13    2
    13    13    14    1
    14    14    10    1
    15    14    15    1
    16    15     7    2
    17     5    16   ar
    18    16    17   ar
    19    17     2   ar
    20     3    18    1
    21     4    19    1
    22     8    20    1
    23     9    21    1
    24    16    22    1
    25    17    23    1
