@<TRIPOS>MOLECULE
*****
 23 25 0 0 0
SMALL
USER_CHARGES

@<TRIPOS>ATOM
      1 I1          7.2648    1.0008    1.0056 I       1  LIG1        0.0000
      2 C2          5.1149    1.0018    1.0016 C.ar    1  LIG1        0.0000
      3 C3          4.4294    1.0498    2.2114 C.ar    1  LIG1        0.0000
      4 C4          3.0385    1.0490    2.2077 C.ar    1  LIG1        0.0000
      5 C5          2.3502    1.0000    1.0000 C.ar    1  LIG1        0.0000
      6 O6          1.0000    1.0000    1.0000 O.3     1  LIG1        0.0000
      7 C7          0.4174    2.2205    0.9505 C.2     1  LIG1        0.0000
      8 C8          0.1371    2.7682   -0.3285 C.2     1  LIG1        0.0000
      9 C9         -0.4509    4.0050   -0.3827 C.2     1  LIG1        0.0000
     10 C10        -0.7690    4.7201    0.8037 C.2     1  LIG1        0.0000
     11 N11        -1.3164    5.8882    1.0619 N.2     1  LIG1        0.0000
     12 N12        -1.3592    6.0367    2.3680 N.2     1  LIG1        0.0000
     13 N13        -0.8598    5.0021    2.8949 N.2     1  LIG1        0.0000
     14 N14        -0.4709    4.1314    1.9827 N.pl3   1  LIG1        0.0000
     15 N15         0.0990    2.9321    2.0246 N.2     1  LIG1        0.0000
     16 C16         3.0372    0.9513   -0.2085 C.ar    1  LIG1        0.0000
     17 C17         4.4283    0.9519   -0.2075 C.ar    1  LIG1        0.0000
     18 H           4.9319    1.0846    3.0753 H       1  LIG1        0.0000
     19 H           2.5348    1.0836    3.0709 H       1  LIG1        0.0000
     20 H           0.3618    2.2673   -1.1643 H       1  LIG1        0.0000
     21 H          -0.6598    4.4112   -1.2722 H       1  LIG1        0.0000
     22 H           2.5344    0.9160   -1.0722 H       1  LIG1        0.0000
     23 H           4.9319    0.9168   -1.0708 H       1  LIG1        0.0000
@<TRIPOS>BOND
     1     1     2    1
     2     2     3   ar
     3     3     4   ar
     4     4     5   ar
     5     5     6    1
     6     6     7    1
     7     7     8    1
     8     8     9    2
     9     9    10    1
    10    10    11    2
    11    11    12    1
    12    12    13    2
    13    13    14    1
    14    14    10    1
    15    14    15    1
    16    15     7    2
    17     5    16   ar
    18    16    17   ar
    19    17     2   ar
    20     3    18    1
    21     4    19    1
    22     8    20    1
    23     9    21    1
    24    16    22    1
    25    17    23    1
