@<TRIPOS>MOLECULE
*****
 23 25 0 0 0
SMALL
USER_CHARGES

@<TRIPOS>ATOM
      1 I1          7.2648    0.9955    0.9966 I       1  LIG1        0.0000
      2 C2          5.1149    0.9976    1.0001 C.ar    1  LIG1        0.0000
      3 C3          4.4294    0.1082    0.1786 C.ar    1  LIG1        0.0000
      4 C4          3.0385    0.1114    0.1807 C.ar    1  LIG1        0.0000
      5 C5          2.3502    1.0000    1.0000 C.ar    1  LIG1        0.0000
      6 O6          1.0000    1.0000    1.0000 O.3     1  LIG1        0.0000
      7 C7          0.4174    2.2205    0.9505 C.2     1  LIG1        0.0000
      8 C8          1.1992    3.3081    0.4812 C.2     1  LIG1        0.0000
      9 C9          0.6132    4.5460    0.4316 C.2     1  LIG1        0.0000
     10 C10        -0.7348    4.7379    0.8393 C.2     1  LIG1        0.0000
     11 N11        -1.5435    5.7735    0.9055 N.2     1  LIG1        0.0000
     12 N12        -2.6996    5.3565    1.3735 N.2     1  LIG1        0.0000
     13 N13        -2.6091    4.1139    1.5865 N.2     1  LIG1        0.0000
     14 N14        -1.4128    3.6531    1.2740 N.pl3   1  LIG1        0.0000
     15 N15        -0.8358    2.4572    1.3181 N.2     1  LIG1        0.0000
     16 C16         3.0372    1.8890    1.8201 C.ar    1  LIG1        0.0000
     17 C17         4.4283    1.8878    1.8199 C.ar    1  LIG1        0.0000
     18 H           4.9319   -0.5273   -0.4076 H       1  LIG1        0.0000
     19 H           2.5348   -0.5234   -0.4052 H       1  LIG1        0.0000
     20 H           2.1483    3.1753    0.1955 H       1  LIG1        0.0000
     21 H           1.1432    5.3277    0.1029 H       1  LIG1        0.0000
     22 H           2.5344    2.5247    2.4059 H       1  LIG1        0.0000
     23 H           4.9319    2.5231    2.4054 H       1  LIG1        0.0000
@<TRIPOS>BOND
     1     1     2    1
     2     2     3   ar
     3     3     4   ar
     4     4     5   ar
     5     5     6    1
     6     6     7    1
     7     7     8    1
     8     8     9    2
     9     9    10    1
    10    10    11    2
    11    11    12    1
    12    12    13    2
    13    13    14    1
    14    14    10    1
    15    14    15    1
    16    15     7    2
    17     5    16   ar
    18    16    17   ar
    19    17     2   ar
    20     3    18    1
    21     4    19    1
    22     8    20    1
    23     9    21    1
    24    16    22    1
    25    17    23    1
