@<TRIPOS>MOLECULE

  33   33
SMALL
USER_CHARGES
@<TRIPOS>ATOM
   1 C1           0.6414    -2.8553    -0.3347 C.3          1    LIG   0.0000
   2 C2           0.9730    -1.3720    -0.3393 C.3          1    LIG   0.0000
   3 C3           0.6052    -0.7664     1.0055 C.3          1    LIG   0.0000
   4 C4          -0.8827    -0.9522     1.2549 C.3          1    LIG   0.0000
   5 S5           1.0000     1.0000     1.0000 S.3          1    LIG   0.0000
   6 C6           2.7404     1.0000     1.0000 C.ar         1    LIG   0.0000
   7 C7           3.4303    -0.2081     1.0036 C.ar         1    LIG   0.0000
   8 C8           4.8212    -0.2065     1.0047 C.ar         1    LIG   0.0000
   9 C9           5.5154     0.9986     1.0009 C.ar         1    LIG   0.0000
  10 N10          6.9155     1.0000     1.0018 N.pl3        1    LIG   0.0000
  11 C11          7.6517    -0.2724     1.0063 C.3          1    LIG   0.0000
  12 C12          4.8184     2.2030     0.9967 C.ar         1    LIG   0.0000
  13 C13          5.5552     3.5327     0.9919 C.3          1    LIG   0.0000
  14 C14          3.4272     2.2101     0.9962 C.ar         1    LIG   0.0000
  15 H            1.1239    -1.2217     1.7291 H            1    LIG   0.0000
  16 H            0.8834    -3.2537    -1.2194 H            1    LIG   0.0000
  17 H            1.1601    -3.3106     0.3890 H            1    LIG   0.0000
  18 H           -0.3374    -2.9776    -0.1706 H            1    LIG   0.0000
  19 H            1.9518    -1.2497    -0.5034 H            1    LIG   0.0000
  20 H            0.4543    -0.9167    -1.0629 H            1    LIG   0.0000
  21 H           -1.1008    -1.9281     1.2579 H            1    LIG   0.0000
  22 H           -1.1247    -0.5538     2.1396 H            1    LIG   0.0000
  23 H           -1.4014    -0.4970     0.5313 H            1    LIG   0.0000
  24 H            2.9287    -1.0732     1.0054 H            1    LIG   0.0000
  25 H            5.3222    -1.0720     1.0081 H            1    LIG   0.0000
  26 H            7.4146     1.8665     0.9995 H            1    LIG   0.0000
  27 H            8.6346    -0.0887     1.0064 H            1    LIG   0.0000
  28 H            7.4100    -0.7945     1.8243 H            1    LIG   0.0000
  29 H            7.4111    -0.7995     0.1913 H            1    LIG   0.0000
  30 H            4.8921     4.2812     0.9893 H            1    LIG   0.0000
  31 H            6.1292     3.5987     1.8082 H            1    LIG   0.0000
  32 H            6.1291     3.5929     0.1752 H            1    LIG   0.0000
  33 H            2.9262     3.0755     0.9933 H            1    LIG   0.0000
@<TRIPOS>BOND
   1        1        2 1
   2        2        3 1
   3        3        4 1
   4        3        5 1
   5        5        6 1
   6        6        7 ar
   7        7        8 ar
   8        8        9 ar
   9        9       10 1
  10       10       11 1
  11        9       12 ar
  12       12       13 1
  13       12       14 ar
  14       14        6 ar
  15        3       15 1
  16        1       16 1
  17        1       17 1
  18        1       18 1
  19        2       19 1
  20        2       20 1
  21        4       21 1
  22        4       22 1
  23        4       23 1
  24        7       24 1
  25        8       25 1
  26       10       26 1
  27       11       27 1
  28       11       28 1
  29       11       29 1
  30       13       30 1
  31       13       31 1
  32       13       32 1
  33       14       33 1

@<TRIPOS>MOLECULE

  33   33
SMALL
USER_CHARGES
@<TRIPOS>ATOM
   1 C1          -1.2355    -2.4316     1.0107 C.3          1    LIG   0.0000
   2 C2          -0.9039    -0.9482     1.0060 C.3          1    LIG   0.0000
   3 C3           0.6052    -0.7664     1.0055 C.3          1    LIG   0.0000
   4 C4           1.1939    -1.4133     2.2486 C.3          1    LIG   0.0000
   5 S5           1.0000     1.0000     1.0000 S.3          1    LIG   0.0000
   6 C6           2.7404     1.0000     1.0000 C.ar         1    LIG   0.0000
   7 C7           3.4303     0.1432     0.1483 C.ar         1    LIG   0.0000
   8 C8           4.8212     0.1436     0.1502 C.ar         1    LIG   0.0000
   9 C9           5.5154     0.9984     0.9997 C.ar         1    LIG   0.0000
  10 N10          6.9155     0.9987     1.0013 N.pl3        1    LIG   0.0000
  11 C11          7.6517     0.0958     0.1047 C.3          1    LIG   0.0000
  12 C12          4.8184     1.8530     1.8483 C.ar         1    LIG   0.0000
  13 C13          5.5552     2.7966     2.7852 C.3          1    LIG   0.0000
  14 C14          3.4272     1.8583     1.8530 C.ar         1    LIG   0.0000
  15 H            0.9925    -1.1971     0.1903 H            1    LIG   0.0000
  16 H           -2.2283    -2.5513     1.0110 H            1    LIG   0.0000
  17 H           -0.8482    -2.8623     0.1955 H            1    LIG   0.0000
  18 H           -0.8482    -2.8572     1.8285 H            1    LIG   0.0000
  19 H           -1.2913    -0.5226     0.1882 H            1    LIG   0.0000
  20 H           -1.2913    -0.5176     1.8212 H            1    LIG   0.0000
  21 H            0.9758    -2.3892     2.2516 H            1    LIG   0.0000
  22 H            2.1867    -1.2937     2.2482 H            1    LIG   0.0000
  23 H            0.8066    -0.9826     3.0637 H            1    LIG   0.0000
  24 H            2.9287    -0.4698    -0.4622 H            1    LIG   0.0000
  25 H            5.3222    -0.4708    -0.4593 H            1    LIG   0.0000
  26 H            7.4146     1.6130     1.6123 H            1    LIG   0.0000
  27 H            8.6346     0.2256     0.2347 H            1    LIG   0.0000
  28 H            7.4100    -0.8517     0.3140 H            1    LIG   0.0000
  29 H            7.4111     0.2994    -0.8443 H            1    LIG   0.0000
  30 H            4.8921     3.3277     3.3126 H            1    LIG   0.0000
  31 H            6.1292     2.2661     3.4090 H            1    LIG   0.0000
  32 H            6.1291     3.4167     2.2502 H            1    LIG   0.0000
  33 H            2.9262     2.4724     2.4629 H            1    LIG   0.0000
@<TRIPOS>BOND
   1        1        2 1
   2        2        3 1
   3        3        4 1
   4        3        5 1
   5        5        6 1
   6        6        7 ar
   7        7        8 ar
   8        8        9 ar
   9        9       10 1
  10       10       11 1
  11        9       12 ar
  12       12       13 1
  13       12       14 ar
  14       14        6 ar
  15        3       15 1
  16        1       16 1
  17        1       17 1
  18        1       18 1
  19        2       19 1
  20        2       20 1
  21        4       21 1
  22        4       22 1
  23        4       23 1
  24        7       24 1
  25        8       25 1
  26       10       26 1
  27       11       27 1
  28       11       28 1
  29       11       29 1
  30       13       30 1
  31       13       31 1
  32       13       32 1
  33       14       33 1

@<TRIPOS>MOLECULE

  33   33
SMALL
USER_CHARGES
@<TRIPOS>ATOM
   1 C1           0.6414    -2.8553    -0.3347 C.3          1    LIG   0.0000
   2 C2           0.9730    -1.3720    -0.3393 C.3          1    LIG   0.0000
   3 C3           0.6052    -0.7664     1.0055 C.3          1    LIG   0.0000
   4 C4          -0.8827    -0.9522     1.2549 C.3          1    LIG   0.0000
   5 S5           1.0000     1.0000     1.0000 S.3          1    LIG   0.0000
   6 C6           2.7404     1.0000     1.0000 C.ar         1    LIG   0.0000
   7 C7           3.4303     0.1483     1.8568 C.ar         1    LIG   0.0000
   8 C8           4.8212     0.1502     1.8564 C.ar         1    LIG   0.0000
   9 C9           5.5154     0.9997     1.0016 C.ar         1    LIG   0.0000
  10 N10          6.9155     1.0013     1.0013 N.pl3        1    LIG   0.0000
  11 C11          7.6517     0.1047     1.9042 C.3          1    LIG   0.0000
  12 C12          4.8184     1.8483     0.1470 C.ar         1    LIG   0.0000
  13 C13          5.5552     2.7852    -0.7966 C.3          1    LIG   0.0000
  14 C14          3.4272     1.8530     0.1417 C.ar         1    LIG   0.0000
  15 H            1.1239    -1.2217     1.7291 H            1    LIG   0.0000
  16 H            0.8834    -3.2537    -1.2194 H            1    LIG   0.0000
  17 H            1.1601    -3.3106     0.3890 H            1    LIG   0.0000
  18 H           -0.3374    -2.9776    -0.1706 H            1    LIG   0.0000
  19 H            1.9518    -1.2497    -0.5034 H            1    LIG   0.0000
  20 H            0.4543    -0.9167    -1.0629 H            1    LIG   0.0000
  21 H           -1.1008    -1.9281     1.2579 H            1    LIG   0.0000
  22 H           -1.1247    -0.5538     2.1396 H            1    LIG   0.0000
  23 H           -1.4014    -0.4970     0.5313 H            1    LIG   0.0000
  24 H            2.9287    -0.4622     2.4698 H            1    LIG   0.0000
  25 H            5.3222    -0.4593     2.4708 H            1    LIG   0.0000
  26 H            7.4146     1.6123     0.3870 H            1    LIG   0.0000
  27 H            8.6346     0.2347     1.7744 H            1    LIG   0.0000
  28 H            7.4100     0.3140     2.8517 H            1    LIG   0.0000
  29 H            7.4111    -0.8443     1.7006 H            1    LIG   0.0000
  30 H            4.8921     3.3126    -1.3277 H            1    LIG   0.0000
  31 H            6.1292     3.4090    -0.2661 H            1    LIG   0.0000
  32 H            6.1291     2.2502    -1.4167 H            1    LIG   0.0000
  33 H            2.9262     2.4629    -0.4724 H            1    LIG   0.0000
@<TRIPOS>BOND
   1        1        2 1
   2        2        3 1
   3        3        4 1
   4        3        5 1
   5        5        6 1
   6        6        7 ar
   7        7        8 ar
   8        8        9 ar
   9        9       10 1
  10       10       11 1
  11        9       12 ar
  12       12       13 1
  13       12       14 ar
  14       14        6 ar
  15        3       15 1
  16        1       16 1
  17        1       17 1
  18        1       18 1
  19        2       19 1
  20        2       20 1
  21        4       21 1
  22        4       22 1
  23        4       23 1
  24        7       24 1
  25        8       25 1
  26       10       26 1
  27       11       27 1
  28       11       28 1
  29       11       29 1
  30       13       30 1
  31       13       31 1
  32       13       32 1
  33       14       33 1

@<TRIPOS>MOLECULE

  33   33
SMALL
USER_CHARGES
@<TRIPOS>ATOM
   1 C1           0.6414    -2.8553    -0.3347 C.3          1    LIG   0.0000
   2 C2           0.9730    -1.3720    -0.3393 C.3          1    LIG   0.0000
   3 C3           0.6052    -0.7664     1.0055 C.3          1    LIG   0.0000
   4 C4          -0.8827    -0.9522     1.2549 C.3          1    LIG   0.0000
   5 S5           1.0000     1.0000     1.0000 S.3          1    LIG   0.0000
   6 C6           2.7404     1.0000     1.0000 C.ar         1    LIG   0.0000
   7 C7           3.4303     2.2081     0.9964 C.ar         1    LIG   0.0000
   8 C8           4.8212     2.2065     0.9953 C.ar         1    LIG   0.0000
   9 C9           5.5154     1.0014     0.9991 C.ar         1    LIG   0.0000
  10 N10          6.9155     1.0000     0.9982 N.pl3        1    LIG   0.0000
  11 C11          7.6517     2.2724     0.9937 C.3          1    LIG   0.0000
  12 C12          4.8184    -0.2030     1.0033 C.ar         1    LIG   0.0000
  13 C13          5.5552    -1.5327     1.0081 C.3          1    LIG   0.0000
  14 C14          3.4272    -0.2101     1.0038 C.ar         1    LIG   0.0000
  15 H            1.1239    -1.2217     1.7291 H            1    LIG   0.0000
  16 H            0.8834    -3.2537    -1.2194 H            1    LIG   0.0000
  17 H            1.1601    -3.3106     0.3890 H            1    LIG   0.0000
  18 H           -0.3374    -2.9776    -0.1706 H            1    LIG   0.0000
  19 H            1.9518    -1.2497    -0.5034 H            1    LIG   0.0000
  20 H            0.4543    -0.9167    -1.0629 H            1    LIG   0.0000
  21 H           -1.1008    -1.9281     1.2579 H            1    LIG   0.0000
  22 H           -1.1247    -0.5538     2.1396 H            1    LIG   0.0000
  23 H           -1.4014    -0.4970     0.5313 H            1    LIG   0.0000
  24 H            2.9287     3.0732     0.9946 H            1    LIG   0.0000
  25 H            5.3222     3.0720     0.9919 H            1    LIG   0.0000
  26 H            7.4146     0.1335     1.0005 H            1    LIG   0.0000
  27 H            8.6346     2.0887     0.9936 H            1    LIG   0.0000
  28 H            7.4100     2.7945     0.1757 H            1    LIG   0.0000
  29 H            7.4111     2.7995     1.8087 H            1    LIG   0.0000
  30 H            4.8921    -2.2812     1.0107 H            1    LIG   0.0000
  31 H            6.1292    -1.5987     0.1918 H            1    LIG   0.0000
  32 H            6.1291    -1.5929     1.8248 H            1    LIG   0.0000
  33 H            2.9262    -1.0755     1.0067 H            1    LIG   0.0000
@<TRIPOS>BOND
   1        1        2 1
   2        2        3 1
   3        3        4 1
   4        3        5 1
   5        5        6 1
   6        6        7 ar
   7        7        8 ar
   8        8        9 ar
   9        9       10 1
  10       10       11 1
  11        9       12 ar
  12       12       13 1
  13       12       14 ar
  14       14        6 ar
  15        3       15 1
  16        1       16 1
  17        1       17 1
  18        1       18 1
  19        2       19 1
  20        2       20 1
  21        4       21 1
  22        4       22 1
  23        4       23 1
  24        7       24 1
  25        8       25 1
  26       10       26 1
  27       11       27 1
  28       11       28 1
  29       11       29 1
  30       13       30 1
  31       13       31 1
  32       13       32 1
  33       14       33 1

@<TRIPOS>MOLECULE

  33   33
SMALL
USER_CHARGES
@<TRIPOS>ATOM
   1 C1          -1.2355    -2.4316     1.0107 C.3          1    LIG   0.0000
   2 C2          -0.9039    -0.9482     1.0060 C.3          1    LIG   0.0000
   3 C3           0.6052    -0.7664     1.0055 C.3          1    LIG   0.0000
   4 C4           1.1939    -1.4133     2.2486 C.3          1    LIG   0.0000
   5 S5           1.0000     1.0000     1.0000 S.3          1    LIG   0.0000
   6 C6           2.7404     1.0000     1.0000 C.ar         1    LIG   0.0000
   7 C7           3.4303     1.8568     1.8517 C.ar         1    LIG   0.0000
   8 C8           4.8212     1.8564     1.8498 C.ar         1    LIG   0.0000
   9 C9           5.5154     1.0016     1.0003 C.ar         1    LIG   0.0000
  10 N10          6.9155     1.0013     0.9987 N.pl3        1    LIG   0.0000
  11 C11          7.6517     1.9042     1.8953 C.3          1    LIG   0.0000
  12 C12          4.8184     0.1470     0.1517 C.ar         1    LIG   0.0000
  13 C13          5.5552    -0.7966    -0.7852 C.3          1    LIG   0.0000
  14 C14          3.4272     0.1417     0.1470 C.ar         1    LIG   0.0000
  15 H            0.9925    -1.1971     0.1903 H            1    LIG   0.0000
  16 H           -2.2283    -2.5513     1.0110 H            1    LIG   0.0000
  17 H           -0.8482    -2.8623     0.1955 H            1    LIG   0.0000
  18 H           -0.8482    -2.8572     1.8285 H            1    LIG   0.0000
  19 H           -1.2913    -0.5226     0.1882 H            1    LIG   0.0000
  20 H           -1.2913    -0.5176     1.8212 H            1    LIG   0.0000
  21 H            0.9758    -2.3892     2.2516 H            1    LIG   0.0000
  22 H            2.1867    -1.2937     2.2482 H            1    LIG   0.0000
  23 H            0.8066    -0.9826     3.0637 H            1    LIG   0.0000
  24 H            2.9287     2.4698     2.4622 H            1    LIG   0.0000
  25 H            5.3222     2.4708     2.4593 H            1    LIG   0.0000
  26 H            7.4146     0.3870     0.3877 H            1    LIG   0.0000
  27 H            8.6346     1.7744     1.7653 H            1    LIG   0.0000
  28 H            7.4100     2.8517     1.6860 H            1    LIG   0.0000
  29 H            7.4111     1.7006     2.8443 H            1    LIG   0.0000
  30 H            4.8921    -1.3277    -1.3126 H            1    LIG   0.0000
  31 H            6.1292    -0.2661    -1.4090 H            1    LIG   0.0000
  32 H            6.1291    -1.4167    -0.2502 H            1    LIG   0.0000
  33 H            2.9262    -0.4724    -0.4629 H            1    LIG   0.0000
@<TRIPOS>BOND
   1        1        2 1
   2        2        3 1
   3        3        4 1
   4        3        5 1
   5        5        6 1
   6        6        7 ar
   7        7        8 ar
   8        8        9 ar
   9        9       10 1
  10       10       11 1
  11        9       12 ar
  12       12       13 1
  13       12       14 ar
  14       14        6 ar
  15        3       15 1
  16        1       16 1
  17        1       17 1
  18        1       18 1
  19        2       19 1
  20        2       20 1
  21        4       21 1
  22        4       22 1
  23        4       23 1
  24        7       24 1
  25        8       25 1
  26       10       26 1
  27       11       27 1
  28       11       28 1
  29       11       29 1
  30       13       30 1
  31       13       31 1
  32       13       32 1
  33       14       33 1

@<TRIPOS>MOLECULE

  33   33
SMALL
USER_CHARGES
@<TRIPOS>ATOM
   1 C1           0.6414    -2.8553    -0.3347 C.3          1    LIG   0.0000
   2 C2           0.9730    -1.3720    -0.3393 C.3          1    LIG   0.0000
   3 C3           0.6052    -0.7664     1.0055 C.3          1    LIG   0.0000
   4 C4          -0.8827    -0.9522     1.2549 C.3          1    LIG   0.0000
   5 S5           1.0000     1.0000     1.0000 S.3          1    LIG   0.0000
   6 C6           2.7404     1.0000     1.0000 C.ar         1    LIG   0.0000
   7 C7           3.4303     1.8517     0.1432 C.ar         1    LIG   0.0000
   8 C8           4.8212     1.8498     0.1436 C.ar         1    LIG   0.0000
   9 C9           5.5154     1.0003     0.9984 C.ar         1    LIG   0.0000
  10 N10          6.9155     0.9987     0.9987 N.pl3        1    LIG   0.0000
  11 C11          7.6517     1.8953     0.0958 C.3          1    LIG   0.0000
  12 C12          4.8184     0.1517     1.8530 C.ar         1    LIG   0.0000
  13 C13          5.5552    -0.7852     2.7966 C.3          1    LIG   0.0000
  14 C14          3.4272     0.1470     1.8583 C.ar         1    LIG   0.0000
  15 H            1.1239    -1.2217     1.7291 H            1    LIG   0.0000
  16 H            0.8834    -3.2537    -1.2194 H            1    LIG   0.0000
  17 H            1.1601    -3.3106     0.3890 H            1    LIG   0.0000
  18 H           -0.3374    -2.9776    -0.1706 H            1    LIG   0.0000
  19 H            1.9518    -1.2497    -0.5034 H            1    LIG   0.0000
  20 H            0.4543    -0.9167    -1.0629 H            1    LIG   0.0000
  21 H           -1.1008    -1.9281     1.2579 H            1    LIG   0.0000
  22 H           -1.1247    -0.5538     2.1396 H            1    LIG   0.0000
  23 H           -1.4014    -0.4970     0.5313 H            1    LIG   0.0000
  24 H            2.9287     2.4622    -0.4698 H            1    LIG   0.0000
  25 H            5.3222     2.4593    -0.4708 H            1    LIG   0.0000
  26 H            7.4146     0.3877     1.6130 H            1    LIG   0.0000
  27 H            8.6346     1.7653     0.2256 H            1    LIG   0.0000
  28 H            7.4100     1.6860    -0.8517 H            1    LIG   0.0000
  29 H            7.4111     2.8443     0.2994 H            1    LIG   0.0000
  30 H            4.8921    -1.3126     3.3277 H            1    LIG   0.0000
  31 H            6.1292    -1.4090     2.2661 H            1    LIG   0.0000
  32 H            6.1291    -0.2502     3.4167 H            1    LIG   0.0000
  33 H            2.9262    -0.4629     2.4724 H            1    LIG   0.0000
@<TRIPOS>BOND
   1        1        2 1
   2        2        3 1
   3        3        4 1
   4        3        5 1
   5        5        6 1
   6        6        7 ar
   7        7        8 ar
   8        8        9 ar
   9        9       10 1
  10       10       11 1
  11        9       12 ar
  12       12       13 1
  13       12       14 ar
  14       14        6 ar
  15        3       15 1
  16        1       16 1
  17        1       17 1
  18        1       18 1
  19        2       19 1
  20        2       20 1
  21        4       21 1
  22        4       22 1
  23        4       23 1
  24        7       24 1
  25        8       25 1
  26       10       26 1
  27       11       27 1
  28       11       28 1
  29       11       29 1
  30       13       30 1
  31       13       31 1
  32       13       32 1
  33       14       33 1

@<TRIPOS>MOLECULE

  33   33
SMALL
USER_CHARGES
@<TRIPOS>ATOM
   1 C1           0.6414    -2.8553    -0.3347 C.3          1    LIG   0.0000
   2 C2           0.9730    -1.3720    -0.3393 C.3          1    LIG   0.0000
   3 C3           0.6052    -0.7664     1.0055 C.3          1    LIG   0.0000
   4 C4          -0.8827    -0.9522     1.2549 C.3          1    LIG   0.0000
   5 S5           1.0000     1.0000     1.0000 S.3          1    LIG   0.0000
   6 C6           2.7404     1.0000     1.0000 C.ar         1    LIG   0.0000
   7 C7           3.4303     1.8517     0.1432 C.ar         1    LIG   0.0000
   8 C8           4.8212     1.8498     0.1436 C.ar         1    LIG   0.0000
   9 C9           5.5154     1.0003     0.9984 C.ar         1    LIG   0.0000
  10 N10          6.9155     0.9987     0.9987 N.pl3        1    LIG   0.0000
  11 C11          7.6506     1.3312     2.2275 C.3          1    LIG   0.0000
  12 C12          4.8184     0.1517     1.8530 C.ar         1    LIG   0.0000
  13 C13          5.5552    -0.7852     2.7966 C.3          1    LIG   0.0000
  14 C14          3.4272     0.1470     1.8583 C.ar         1    LIG   0.0000
  15 H            1.1239    -1.2217     1.7291 H            1    LIG   0.0000
  16 H            0.8834    -3.2537    -1.2194 H            1    LIG   0.0000
  17 H            1.1601    -3.3106     0.3890 H            1    LIG   0.0000
  18 H           -0.3374    -2.9776    -0.1706 H            1    LIG   0.0000
  19 H            1.9518    -1.2497    -0.5034 H            1    LIG   0.0000
  20 H            0.4543    -0.9167    -1.0629 H            1    LIG   0.0000
  21 H           -1.1008    -1.9281     1.2579 H            1    LIG   0.0000
  22 H           -1.1247    -0.5538     2.1396 H            1    LIG   0.0000
  23 H           -1.4014    -0.4970     0.5313 H            1    LIG   0.0000
  24 H            2.9287     2.4622    -0.4698 H            1    LIG   0.0000
  25 H            5.3222     2.4593    -0.4708 H            1    LIG   0.0000
  26 H            7.4153     0.7714     0.1629 H            1    LIG   0.0000
  27 H            8.6337     1.2822     2.0513 H            1    LIG   0.0000
  28 H            7.4100     2.2568     2.5197 H            1    LIG   0.0000
  29 H            7.4081     0.6807     2.9473 H            1    LIG   0.0000
  30 H            4.8921    -1.3126     3.3277 H            1    LIG   0.0000
  31 H            6.1292    -1.4090     2.2661 H            1    LIG   0.0000
  32 H            6.1291    -0.2502     3.4167 H            1    LIG   0.0000
  33 H            2.9262    -0.4629     2.4724 H            1    LIG   0.0000
@<TRIPOS>BOND
   1        1        2 1
   2        2        3 1
   3        3        4 1
   4        3        5 1
   5        5        6 1
   6        6        7 ar
   7        7        8 ar
   8        8        9 ar
   9        9       10 1
  10       10       11 1
  11        9       12 ar
  12       12       13 1
  13       12       14 ar
  14       14        6 ar
  15        3       15 1
  16        1       16 1
  17        1       17 1
  18        1       18 1
  19        2       19 1
  20        2       20 1
  21        4       21 1
  22        4       22 1
  23        4       23 1
  24        7       24 1
  25        8       25 1
  26       10       26 1
  27       11       27 1
  28       11       28 1
  29       11       29 1
  30       13       30 1
  31       13       31 1
  32       13       32 1
  33       14       33 1

@<TRIPOS>MOLECULE

  33   33
SMALL
USER_CHARGES
@<TRIPOS>ATOM
   1 C1           0.6414    -2.8553    -0.3347 C.3          1    LIG   0.0000
   2 C2           0.9730    -1.3720    -0.3393 C.3          1    LIG   0.0000
   3 C3           0.6052    -0.7664     1.0055 C.3          1    LIG   0.0000
   4 C4          -0.8827    -0.9522     1.2549 C.3          1    LIG   0.0000
   5 S5           1.0000     1.0000     1.0000 S.3          1    LIG   0.0000
   6 C6           2.7404     1.0000     1.0000 C.ar         1    LIG   0.0000
   7 C7           3.4303     0.9964    -0.2081 C.ar         1    LIG   0.0000
   8 C8           4.8212     0.9953    -0.2065 C.ar         1    LIG   0.0000
   9 C9           5.5154     0.9991     0.9986 C.ar         1    LIG   0.0000
  10 N10          6.9155     0.9982     1.0000 N.pl3        1    LIG   0.0000
  11 C11          7.6517     0.9937    -0.2724 C.3          1    LIG   0.0000
  12 C12          4.8184     1.0033     2.2030 C.ar         1    LIG   0.0000
  13 C13          5.5552     1.0081     3.5327 C.3          1    LIG   0.0000
  14 C14          3.4272     1.0038     2.2101 C.ar         1    LIG   0.0000
  15 H            1.1239    -1.2217     1.7291 H            1    LIG   0.0000
  16 H            0.8834    -3.2537    -1.2194 H            1    LIG   0.0000
  17 H            1.1601    -3.3106     0.3890 H            1    LIG   0.0000
  18 H           -0.3374    -2.9776    -0.1706 H            1    LIG   0.0000
  19 H            1.9518    -1.2497    -0.5034 H            1    LIG   0.0000
  20 H            0.4543    -0.9167    -1.0629 H            1    LIG   0.0000
  21 H           -1.1008    -1.9281     1.2579 H            1    LIG   0.0000
  22 H           -1.1247    -0.5538     2.1396 H            1    LIG   0.0000
  23 H           -1.4014    -0.4970     0.5313 H            1    LIG   0.0000
  24 H            2.9287     0.9946    -1.0732 H            1    LIG   0.0000
  25 H            5.3222     0.9919    -1.0720 H            1    LIG   0.0000
  26 H            7.4146     1.0005     1.8665 H            1    LIG   0.0000
  27 H            8.6346     0.9936    -0.0887 H            1    LIG   0.0000
  28 H            7.4100     0.1757    -0.7945 H            1    LIG   0.0000
  29 H            7.4111     1.8087    -0.7995 H            1    LIG   0.0000
  30 H            4.8921     1.0107     4.2812 H            1    LIG   0.0000
  31 H            6.1292     0.1918     3.5987 H            1    LIG   0.0000
  32 H            6.1291     1.8248     3.5929 H            1    LIG   0.0000
  33 H            2.9262     1.0067     3.0755 H            1    LIG   0.0000
@<TRIPOS>BOND
   1        1        2 1
   2        2        3 1
   3        3        4 1
   4        3        5 1
   5        5        6 1
   6        6        7 ar
   7        7        8 ar
   8        8        9 ar
   9        9       10 1
  10       10       11 1
  11        9       12 ar
  12       12       13 1
  13       12       14 ar
  14       14        6 ar
  15        3       15 1
  16        1       16 1
  17        1       17 1
  18        1       18 1
  19        2       19 1
  20        2       20 1
  21        4       21 1
  22        4       22 1
  23        4       23 1
  24        7       24 1
  25        8       25 1
  26       10       26 1
  27       11       27 1
  28       11       28 1
  29       11       29 1
  30       13       30 1
  31       13       31 1
  32       13       32 1
  33       14       33 1

@<TRIPOS>MOLECULE

  33   33
SMALL
USER_CHARGES
@<TRIPOS>ATOM
   1 C1           0.6414    -2.8470     2.3586 C.3          1    LIG   0.0000
   2 C2           0.9730    -1.3636     2.3540 C.3          1    LIG   0.0000
   3 C3           0.6052    -0.7664     1.0055 C.3          1    LIG   0.0000
   4 C4           1.3936    -1.4652    -0.0901 C.3          1    LIG   0.0000
   5 S5           1.0000     1.0000     1.0000 S.3          1    LIG   0.0000
   6 C6           2.7404     1.0000     1.0000 C.ar         1    LIG   0.0000
   7 C7           3.4303     0.9964    -0.2081 C.ar         1    LIG   0.0000
   8 C8           4.8212     0.9953    -0.2065 C.ar         1    LIG   0.0000
   9 C9           5.5154     0.9991     0.9986 C.ar         1    LIG   0.0000
  10 N10          6.9155     0.9982     1.0000 N.pl3        1    LIG   0.0000
  11 C11          7.6517     0.9937    -0.2724 C.3          1    LIG   0.0000
  12 C12          4.8184     1.0033     2.2030 C.ar         1    LIG   0.0000
  13 C13          5.5552     1.0081     3.5327 C.3          1    LIG   0.0000
  14 C14          3.4272     1.0038     2.2101 C.ar         1    LIG   0.0000
  15 H           -0.3737    -0.8897     0.8421 H            1    LIG   0.0000
  16 H            0.8834    -3.2399     3.2458 H            1    LIG   0.0000
  17 H           -0.3374    -2.9703     2.1953 H            1    LIG   0.0000
  18 H            1.1601    -3.3067     1.6378 H            1    LIG   0.0000
  19 H            0.4543    -0.9039     3.0748 H            1    LIG   0.0000
  20 H            1.9518    -1.2403     2.5173 H            1    LIG   0.0000
  21 H            1.1755    -2.4411    -0.0871 H            1    LIG   0.0000
  22 H            1.1516    -1.0723    -0.9773 H            1    LIG   0.0000
  23 H            2.3724    -1.3419     0.0732 H            1    LIG   0.0000
  24 H            2.9287     0.9946    -1.0732 H            1    LIG   0.0000
  25 H            5.3222     0.9919    -1.0720 H            1    LIG   0.0000
  26 H            7.4146     1.0005     1.8665 H            1    LIG   0.0000
  27 H            8.6346     0.9936    -0.0887 H            1    LIG   0.0000
  28 H            7.4100     0.1757    -0.7945 H            1    LIG   0.0000
  29 H            7.4111     1.8087    -0.7995 H            1    LIG   0.0000
  30 H            4.8921     1.0107     4.2812 H            1    LIG   0.0000
  31 H            6.1292     0.1918     3.5987 H            1    LIG   0.0000
  32 H            6.1291     1.8248     3.5929 H            1    LIG   0.0000
  33 H            2.9262     1.0067     3.0755 H            1    LIG   0.0000
@<TRIPOS>BOND
   1        1        2 1
   2        2        3 1
   3        3        4 1
   4        3        5 1
   5        5        6 1
   6        6        7 ar
   7        7        8 ar
   8        8        9 ar
   9        9       10 1
  10       10       11 1
  11        9       12 ar
  12       12       13 1
  13       12       14 ar
  14       14        6 ar
  15        3       15 1
  16        1       16 1
  17        1       17 1
  18        1       18 1
  19        2       19 1
  20        2       20 1
  21        4       21 1
  22        4       22 1
  23        4       23 1
  24        7       24 1
  25        8       25 1
  26       10       26 1
  27       11       27 1
  28       11       28 1
  29       11       29 1
  30       13       30 1
  31       13       31 1
  32       13       32 1
  33       14       33 1

@<TRIPOS>MOLECULE

  33   33
SMALL
USER_CHARGES
@<TRIPOS>ATOM
   1 C1          -1.2355    -2.4316     1.0107 C.3          1    LIG   0.0000
   2 C2          -0.9039    -0.9482     1.0060 C.3          1    LIG   0.0000
   3 C3           0.6052    -0.7664     1.0055 C.3          1    LIG   0.0000
   4 C4           1.1939    -1.4133     2.2486 C.3          1    LIG   0.0000
   5 S5           1.0000     1.0000     1.0000 S.3          1    LIG   0.0000
   6 C6           2.7404     1.0000     1.0000 C.ar         1    LIG   0.0000
   7 C7           3.4303     1.0036     2.2081 C.ar         1    LIG   0.0000
   8 C8           4.8212     1.0047     2.2065 C.ar         1    LIG   0.0000
   9 C9           5.5154     1.0009     1.0014 C.ar         1    LIG   0.0000
  10 N10          6.9155     1.0018     1.0000 N.pl3        1    LIG   0.0000
  11 C11          7.6517     1.0063     2.2724 C.3          1    LIG   0.0000
  12 C12          4.8184     0.9967    -0.2030 C.ar         1    LIG   0.0000
  13 C13          5.5552     0.9919    -1.5327 C.3          1    LIG   0.0000
  14 C14          3.4272     0.9962    -0.2101 C.ar         1    LIG   0.0000
  15 H            0.9925    -1.1971     0.1903 H            1    LIG   0.0000
  16 H           -2.2283    -2.5513     1.0110 H            1    LIG   0.0000
  17 H           -0.8482    -2.8623     0.1955 H            1    LIG   0.0000
  18 H           -0.8482    -2.8572     1.8285 H            1    LIG   0.0000
  19 H           -1.2913    -0.5226     0.1882 H            1    LIG   0.0000
  20 H           -1.2913    -0.5176     1.8212 H            1    LIG   0.0000
  21 H            0.9758    -2.3892     2.2516 H            1    LIG   0.0000
  22 H            2.1867    -1.2937     2.2482 H            1    LIG   0.0000
  23 H            0.8066    -0.9826     3.0637 H            1    LIG   0.0000
  24 H            2.9287     1.0054     3.0732 H            1    LIG   0.0000
  25 H            5.3222     1.0081     3.0720 H            1    LIG   0.0000
  26 H            7.4146     0.9995     0.1335 H            1    LIG   0.0000
  27 H            8.6346     1.0064     2.0887 H            1    LIG   0.0000
  28 H            7.4100     1.8243     2.7945 H            1    LIG   0.0000
  29 H            7.4111     0.1913     2.7995 H            1    LIG   0.0000
  30 H            4.8921     0.9893    -2.2812 H            1    LIG   0.0000
  31 H            6.1292     1.8082    -1.5987 H            1    LIG   0.0000
  32 H            6.1291     0.1752    -1.5929 H            1    LIG   0.0000
  33 H            2.9262     0.9933    -1.0755 H            1    LIG   0.0000
@<TRIPOS>BOND
   1        1        2 1
   2        2        3 1
   3        3        4 1
   4        3        5 1
   5        5        6 1
   6        6        7 ar
   7        7        8 ar
   8        8        9 ar
   9        9       10 1
  10       10       11 1
  11        9       12 ar
  12       12       13 1
  13       12       14 ar
  14       14        6 ar
  15        3       15 1
  16        1       16 1
  17        1       17 1
  18        1       18 1
  19        2       19 1
  20        2       20 1
  21        4       21 1
  22        4       22 1
  23        4       23 1
  24        7       24 1
  25        8       25 1
  26       10       26 1
  27       11       27 1
  28       11       28 1
  29       11       29 1
  30       13       30 1
  31       13       31 1
  32       13       32 1
  33       14       33 1

@<TRIPOS>MOLECULE

  33   33
SMALL
USER_CHARGES
@<TRIPOS>ATOM
   1 C1           0.6414    -2.8553    -0.3347 C.3          1    LIG   0.0000
   2 C2           0.9730    -1.3720    -0.3393 C.3          1    LIG   0.0000
   3 C3           0.6052    -0.7664     1.0055 C.3          1    LIG   0.0000
   4 C4          -0.8827    -0.9522     1.2549 C.3          1    LIG   0.0000
   5 S5           1.0000     1.0000     1.0000 S.3          1    LIG   0.0000
   6 C6           2.7404     1.0000     1.0000 C.ar         1    LIG   0.0000
   7 C7           3.4303     1.0036     2.2081 C.ar         1    LIG   0.0000
   8 C8           4.8212     1.0047     2.2065 C.ar         1    LIG   0.0000
   9 C9           5.5154     1.0009     1.0014 C.ar         1    LIG   0.0000
  10 N10          6.9155     1.0018     1.0000 N.pl3        1    LIG   0.0000
  11 C11          7.6517     1.0063     2.2724 C.3          1    LIG   0.0000
  12 C12          4.8184     0.9967    -0.2030 C.ar         1    LIG   0.0000
  13 C13          5.5552     0.9919    -1.5327 C.3          1    LIG   0.0000
  14 C14          3.4272     0.9962    -0.2101 C.ar         1    LIG   0.0000
  15 H            1.1239    -1.2217     1.7291 H            1    LIG   0.0000
  16 H            0.8834    -3.2537    -1.2194 H            1    LIG   0.0000
  17 H            1.1601    -3.3106     0.3890 H            1    LIG   0.0000
  18 H           -0.3374    -2.9776    -0.1706 H            1    LIG   0.0000
  19 H            1.9518    -1.2497    -0.5034 H            1    LIG   0.0000
  20 H            0.4543    -0.9167    -1.0629 H            1    LIG   0.0000
  21 H           -1.1008    -1.9281     1.2579 H            1    LIG   0.0000
  22 H           -1.1247    -0.5538     2.1396 H            1    LIG   0.0000
  23 H           -1.4014    -0.4970     0.5313 H            1    LIG   0.0000
  24 H            2.9287     1.0054     3.0732 H            1    LIG   0.0000
  25 H            5.3222     1.0081     3.0720 H            1    LIG   0.0000
  26 H            7.4146     0.9995     0.1335 H            1    LIG   0.0000
  27 H            8.6346     1.0064     2.0887 H            1    LIG   0.0000
  28 H            7.4100     1.8243     2.7945 H            1    LIG   0.0000
  29 H            7.4111     0.1913     2.7995 H            1    LIG   0.0000
  30 H            4.8921     0.9893    -2.2812 H            1    LIG   0.0000
  31 H            6.1292     1.8082    -1.5987 H            1    LIG   0.0000
  32 H            6.1291     0.1752    -1.5929 H            1    LIG   0.0000
  33 H            2.9262     0.9933    -1.0755 H            1    LIG   0.0000
@<TRIPOS>BOND
   1        1        2 1
   2        2        3 1
   3        3        4 1
   4        3        5 1
   5        5        6 1
   6        6        7 ar
   7        7        8 ar
   8        8        9 ar
   9        9       10 1
  10       10       11 1
  11        9       12 ar
  12       12       13 1
  13       12       14 ar
  14       14        6 ar
  15        3       15 1
  16        1       16 1
  17        1       17 1
  18        1       18 1
  19        2       19 1
  20        2       20 1
  21        4       21 1
  22        4       22 1
  23        4       23 1
  24        7       24 1
  25        8       25 1
  26       10       26 1
  27       11       27 1
  28       11       28 1
  29       11       29 1
  30       13       30 1
  31       13       31 1
  32       13       32 1
  33       14       33 1

@<TRIPOS>MOLECULE

  33   33
SMALL
USER_CHARGES
@<TRIPOS>ATOM
   1 C1           0.6414    -2.8470     2.3586 C.3          1    LIG   0.0000
   2 C2           0.9730    -1.3636     2.3540 C.3          1    LIG   0.0000
   3 C3           0.6052    -0.7664     1.0055 C.3          1    LIG   0.0000
   4 C4           1.3936    -1.4652    -0.0901 C.3          1    LIG   0.0000
   5 S5           1.0000     1.0000     1.0000 S.3          1    LIG   0.0000
   6 C6           2.7404     1.0000     1.0000 C.ar         1    LIG   0.0000
   7 C7           3.4303     1.0036     2.2081 C.ar         1    LIG   0.0000
   8 C8           4.8212     1.0047     2.2065 C.ar         1    LIG   0.0000
   9 C9           5.5154     1.0009     1.0014 C.ar         1    LIG   0.0000
  10 N10          6.9155     1.0018     1.0000 N.pl3        1    LIG   0.0000
  11 C11          7.6517     1.0063     2.2724 C.3          1    LIG   0.0000
  12 C12          4.8184     0.9967    -0.2030 C.ar         1    LIG   0.0000
  13 C13          5.5552     0.9919    -1.5327 C.3          1    LIG   0.0000
  14 C14          3.4272     0.9962    -0.2101 C.ar         1    LIG   0.0000
  15 H           -0.3737    -0.8897     0.8421 H            1    LIG   0.0000
  16 H            0.8834    -3.2399     3.2458 H            1    LIG   0.0000
  17 H           -0.3374    -2.9703     2.1953 H            1    LIG   0.0000
  18 H            1.1601    -3.3067     1.6378 H            1    LIG   0.0000
  19 H            0.4543    -0.9039     3.0748 H            1    LIG   0.0000
  20 H            1.9518    -1.2403     2.5173 H            1    LIG   0.0000
  21 H            1.1755    -2.4411    -0.0871 H            1    LIG   0.0000
  22 H            1.1516    -1.0723    -0.9773 H            1    LIG   0.0000
  23 H            2.3724    -1.3419     0.0732 H            1    LIG   0.0000
  24 H            2.9287     1.0054     3.0732 H            1    LIG   0.0000
  25 H            5.3222     1.0081     3.0720 H            1    LIG   0.0000
  26 H            7.4146     0.9995     0.1335 H            1    LIG   0.0000
  27 H            8.6346     1.0064     2.0887 H            1    LIG   0.0000
  28 H            7.4100     1.8243     2.7945 H            1    LIG   0.0000
  29 H            7.4111     0.1913     2.7995 H            1    LIG   0.0000
  30 H            4.8921     0.9893    -2.2812 H            1    LIG   0.0000
  31 H            6.1292     1.8082    -1.5987 H            1    LIG   0.0000
  32 H            6.1291     0.1752    -1.5929 H            1    LIG   0.0000
  33 H            2.9262     0.9933    -1.0755 H            1    LIG   0.0000
@<TRIPOS>BOND
   1        1        2 1
   2        2        3 1
   3        3        4 1
   4        3        5 1
   5        5        6 1
   6        6        7 ar
   7        7        8 ar
   8        8        9 ar
   9        9       10 1
  10       10       11 1
  11        9       12 ar
  12       12       13 1
  13       12       14 ar
  14       14        6 ar
  15        3       15 1
  16        1       16 1
  17        1       17 1
  18        1       18 1
  19        2       19 1
  20        2       20 1
  21        4       21 1
  22        4       22 1
  23        4       23 1
  24        7       24 1
  25        8       25 1
  26       10       26 1
  27       11       27 1
  28       11       28 1
  29       11       29 1
  30       13       30 1
  31       13       31 1
  32       13       32 1
  33       14       33 1

