@<TRIPOS>MOLECULE
*****
 33 33 0 0 0
SMALL
USER_CHARGES

@<TRIPOS>ATOM
      1 C1          0.6414   -2.8553   -0.3347 C.3     1  LIG1        0.0000
      2 C2          0.9730   -1.3720   -0.3393 C.3     1  LIG1        0.0000
      3 C3          0.6052   -0.7664    1.0055 C.3     1  LIG1        0.0000
      4 C4         -0.8827   -0.9522    1.2549 C.3     1  LIG1        0.0000
      5 S5          1.0000    1.0000    1.0000 S.3     1  LIG1        0.0000
      6 C6          2.7404    1.0000    1.0000 C.ar    1  LIG1        0.0000
      7 C7          3.4303    2.2081    0.9964 C.ar    1  LIG1        0.0000
      8 C8          4.8212    2.2065    0.9953 C.ar    1  LIG1        0.0000
      9 C9          5.5154    1.0014    0.9991 C.ar    1  LIG1        0.0000
     10 N10         6.9155    1.0000    0.9982 N.pl3   1  LIG1        0.0000
     11 C11         7.6517    2.2724    0.9937 C.3     1  LIG1        0.0000
     12 C12         4.8184   -0.2030    1.0033 C.ar    1  LIG1        0.0000
     13 C13         5.5552   -1.5327    1.0081 C.3     1  LIG1        0.0000
     14 C14         3.4272   -0.2101    1.0038 C.ar    1  LIG1        0.0000
     15 H           1.1239   -1.2217    1.7291 H       1  LIG1        0.0000
     16 H           0.8834   -3.2537   -1.2194 H       1  LIG1        0.0000
     17 H           1.1601   -3.3106    0.3890 H       1  LIG1        0.0000
     18 H          -0.3374   -2.9776   -0.1706 H       1  LIG1        0.0000
     19 H           1.9518   -1.2497   -0.5034 H       1  LIG1        0.0000
     20 H           0.4543   -0.9167   -1.0629 H       1  LIG1        0.0000
     21 H          -1.1008   -1.9281    1.2579 H       1  LIG1        0.0000
     22 H          -1.1247   -0.5538    2.1396 H       1  LIG1        0.0000
     23 H          -1.4014   -0.4970    0.5313 H       1  LIG1        0.0000
     24 H           2.9287    3.0732    0.9946 H       1  LIG1        0.0000
     25 H           5.3222    3.0720    0.9919 H       1  LIG1        0.0000
     26 H           7.4146    0.1335    1.0005 H       1  LIG1        0.0000
     27 H           8.6346    2.0887    0.9936 H       1  LIG1        0.0000
     28 H           7.4100    2.7945    0.1757 H       1  LIG1        0.0000
     29 H           7.4111    2.7995    1.8087 H       1  LIG1        0.0000
     30 H           4.8921   -2.2812    1.0107 H       1  LIG1        0.0000
     31 H           6.1292   -1.5987    0.1918 H       1  LIG1        0.0000
     32 H           6.1291   -1.5929    1.8248 H       1  LIG1        0.0000
     33 H           2.9262   -1.0755    1.0067 H       1  LIG1        0.0000
@<TRIPOS>BOND
     1     1     2    1
     2     2     3    1
     3     3     4    1
     4     3     5    1
     5     5     6    1
     6     6     7   ar
     7     7     8   ar
     8     8     9   ar
     9     9    10    1
    10    10    11    1
    11     9    12   ar
    12    12    13    1
    13    12    14   ar
    14    14     6   ar
    15     3    15    1
    16     1    16    1
    17     1    17    1
    18     1    18    1
    19     2    19    1
    20     2    20    1
    21     4    21    1
    22     4    22    1
    23     4    23    1
    24     7    24    1
    25     8    25    1
    26    10    26    1
    27    11    27    1
    28    11    28    1
    29    11    29    1
    30    13    30    1
    31    13    31    1
    32    13    32    1
    33    14    33    1
