@<TRIPOS>MOLECULE
*****
 33 33 0 0 0
SMALL
USER_CHARGES

@<TRIPOS>ATOM
      1 C1         -1.2355   -2.4316    1.0107 C.3     1  LIG1        0.0000
      2 C2         -0.9039   -0.9482    1.0060 C.3     1  LIG1        0.0000
      3 C3          0.6052   -0.7664    1.0055 C.3     1  LIG1        0.0000
      4 C4          1.1939   -1.4133    2.2486 C.3     1  LIG1        0.0000
      5 S5          1.0000    1.0000    1.0000 S.3     1  LIG1        0.0000
      6 C6          2.7404    1.0000    1.0000 C.ar    1  LIG1        0.0000
      7 C7          3.4303    1.8568    1.8517 C.ar    1  LIG1        0.0000
      8 C8          4.8212    1.8564    1.8498 C.ar    1  LIG1        0.0000
      9 C9          5.5154    1.0016    1.0003 C.ar    1  LIG1        0.0000
     10 N10         6.9155    1.0013    0.9987 N.pl3   1  LIG1        0.0000
     11 C11         7.6517    1.9042    1.8953 C.3     1  LIG1        0.0000
     12 C12         4.8184    0.1470    0.1517 C.ar    1  LIG1        0.0000
     13 C13         5.5552   -0.7966   -0.7852 C.3     1  LIG1        0.0000
     14 C14         3.4272    0.1417    0.1470 C.ar    1  LIG1        0.0000
     15 H           0.9925   -1.1971    0.1903 H       1  LIG1        0.0000
     16 H          -2.2283   -2.5513    1.0110 H       1  LIG1        0.0000
     17 H          -0.8482   -2.8623    0.1955 H       1  LIG1        0.0000
     18 H          -0.8482   -2.8572    1.8285 H       1  LIG1        0.0000
     19 H          -1.2913   -0.5226    0.1882 H       1  LIG1        0.0000
     20 H          -1.2913   -0.5176    1.8212 H       1  LIG1        0.0000
     21 H           0.9758   -2.3892    2.2516 H       1  LIG1        0.0000
     22 H           2.1867   -1.2937    2.2482 H       1  LIG1        0.0000
     23 H           0.8066   -0.9826    3.0637 H       1  LIG1        0.0000
     24 H           2.9287    2.4698    2.4622 H       1  LIG1        0.0000
     25 H           5.3222    2.4708    2.4593 H       1  LIG1        0.0000
     26 H           7.4146    0.3870    0.3877 H       1  LIG1        0.0000
     27 H           8.6346    1.7744    1.7653 H       1  LIG1        0.0000
     28 H           7.4100    2.8517    1.6860 H       1  LIG1        0.0000
     29 H           7.4111    1.7006    2.8443 H       1  LIG1        0.0000
     30 H           4.8921   -1.3277   -1.3126 H       1  LIG1        0.0000
     31 H           6.1292   -0.2661   -1.4090 H       1  LIG1        0.0000
     32 H           6.1291   -1.4167   -0.2502 H       1  LIG1        0.0000
     33 H           2.9262   -0.4724   -0.4629 H       1  LIG1        0.0000
@<TRIPOS>BOND
     1     1     2    1
     2     2     3    1
     3     3     4    1
     4     3     5    1
     5     5     6    1
     6     6     7   ar
     7     7     8   ar
     8     8     9   ar
     9     9    10    1
    10    10    11    1
    11     9    12   ar
    12    12    13    1
    13    12    14   ar
    14    14     6   ar
    15     3    15    1
    16     1    16    1
    17     1    17    1
    18     1    18    1
    19     2    19    1
    20     2    20    1
    21     4    21    1
    22     4    22    1
    23     4    23    1
    24     7    24    1
    25     8    25    1
    26    10    26    1
    27    11    27    1
    28    11    28    1
    29    11    29    1
    30    13    30    1
    31    13    31    1
    32    13    32    1
    33    14    33    1
