@<TRIPOS>MOLECULE

  32   33
SMALL
USER_CHARGES
@<TRIPOS>ATOM
   1 C1           0.2272     2.7087     2.5633 C.3          1    LIG   0.0000
   2 C2           0.2650     1.2211     2.2537 C.3          1    LIG   0.0000
   3 N3           1.0000     1.0000     1.0000 N.pl3        1    LIG   0.0000
   4 C4           2.4700     1.0000     1.0000 C.3          1    LIG   0.0000
   5 C5           2.9763     2.3456     0.5102 C.2          1    LIG   0.0000
   6 N6           3.2455     3.4059     1.2310 N.2          1    LIG   0.0000
   7 C7           3.6948     4.5056     0.5504 C.2          1    LIG   0.0000
   8 C8           4.0618     5.8320     1.1932 C.3          1    LIG   0.0000
   9 C9           3.8056     4.3437    -0.7969 C.2          1    LIG   0.0000
  10 Br10         4.3979     5.6158    -2.1652 Br           1    LIG   0.0000
  11 S11          3.3056     2.7475    -1.1093 S.3          1    LIG   0.0000
  12 C12          0.2999     0.7894    -0.1941 C.ar         1    LIG   0.0000
  13 C13         -1.0913     0.7912    -0.1841 C.ar         1    LIG   0.0000
  14 C14         -1.7951     0.5820    -1.3656 C.ar         1    LIG   0.0000
  15 C15         -1.0911     0.3723    -2.5469 C.ar         1    LIG   0.0000
  16 Cl16        -1.9850     0.1041    -4.0623 Cl           1    LIG   0.0000
  17 C17          0.3001     0.3681    -2.5659 C.ar         1    LIG   0.0000
  18 C18          0.9956     0.5778    -1.3797 C.ar         1    LIG   0.0000
  19 H           -0.2728     2.8591     3.4162 H            1    LIG   0.0000
  20 H            1.1611     3.0531     2.6593 H            1    LIG   0.0000
  21 H           -0.2316     3.1927     1.8181 H            1    LIG   0.0000
  22 H            0.7238     0.7371     2.9989 H            1    LIG   0.0000
  23 H           -0.6689     0.8767     2.1578 H            1    LIG   0.0000
  24 H            2.8033     0.2778     0.3940 H            1    LIG   0.0000
  25 H            2.8033     0.8363     1.9285 H            1    LIG   0.0000
  26 H            4.3609     6.4733     0.4866 H            1    LIG   0.0000
  27 H            3.2637     6.2053     1.6660 H            1    LIG   0.0000
  28 H            4.8024     5.6905     1.8500 H            1    LIG   0.0000
  29 H           -1.5851     0.9428     0.6721 H            1    LIG   0.0000
  30 H           -2.7951     0.5823    -1.3657 H            1    LIG   0.0000
  31 H            0.7940     0.2161    -3.4220 H            1    LIG   0.0000
  32 H            1.9956     0.5763    -1.3793 H            1    LIG   0.0000
@<TRIPOS>BOND
   1        1        2 1
   2        2        3 1
   3        3        4 1
   4        4        5 1
   5        5        6 2
   6        6        7 1
   7        7        8 1
   8        7        9 2
   9        9       10 1
  10        9       11 1
  11       11        5 1
  12        3       12 1
  13       12       13 ar
  14       13       14 ar
  15       14       15 ar
  16       15       16 1
  17       15       17 ar
  18       17       18 ar
  19       18       12 ar
  20        1       19 1
  21        1       20 1
  22        1       21 1
  23        2       22 1
  24        2       23 1
  25        4       24 1
  26        4       25 1
  27        8       26 1
  28        8       27 1
  29        8       28 1
  30       13       29 1
  31       14       30 1
  32       17       31 1
  33       18       32 1

@<TRIPOS>MOLECULE

  32   33
SMALL
USER_CHARGES
@<TRIPOS>ATOM
   1 C1           0.2272     2.7087     2.5633 C.3          1    LIG   0.0000
   2 C2           0.2650     1.2211     2.2537 C.3          1    LIG   0.0000
   3 N3           1.0000     1.0000     1.0000 N.pl3        1    LIG   0.0000
   4 C4           2.4700     1.0000     1.0000 C.3          1    LIG   0.0000
   5 C5           2.9763     2.3456     0.5102 C.2          1    LIG   0.0000
   6 N6           3.2382     2.6970    -0.7244 N.2          1    LIG   0.0000
   7 C7           3.6845     3.9779    -0.9102 C.2          1    LIG   0.0000
   8 C8           4.0443     4.5831    -2.2560 C.3          1    LIG   0.0000
   9 C9           3.7924     4.7208     0.2256 C.2          1    LIG   0.0000
  10 Br10         4.3772     6.5773     0.4552 Br           1    LIG   0.0000
  11 S11          3.3056     3.6945     1.4925 S.3          1    LIG   0.0000
  12 C12          0.2999     0.7894    -0.1941 C.ar         1    LIG   0.0000
  13 C13         -1.0913     0.7912    -0.1841 C.ar         1    LIG   0.0000
  14 C14         -1.7951     0.5820    -1.3656 C.ar         1    LIG   0.0000
  15 C15         -1.0911     0.3723    -2.5469 C.ar         1    LIG   0.0000
  16 Cl16        -1.9850     0.1041    -4.0623 Cl           1    LIG   0.0000
  17 C17          0.3001     0.3681    -2.5659 C.ar         1    LIG   0.0000
  18 C18          0.9956     0.5778    -1.3797 C.ar         1    LIG   0.0000
  19 H           -0.2728     2.8591     3.4162 H            1    LIG   0.0000
  20 H            1.1611     3.0531     2.6593 H            1    LIG   0.0000
  21 H           -0.2316     3.1927     1.8181 H            1    LIG   0.0000
  22 H            0.7238     0.7371     2.9989 H            1    LIG   0.0000
  23 H           -0.6689     0.8767     2.1578 H            1    LIG   0.0000
  24 H            2.8033     0.2778     0.3940 H            1    LIG   0.0000
  25 H            2.8033     0.8363     1.9285 H            1    LIG   0.0000
  26 H            4.3424     5.5289    -2.1272 H            1    LIG   0.0000
  27 H            4.7840     4.0543    -2.6723 H            1    LIG   0.0000
  28 H            3.2435     4.5646    -2.8546 H            1    LIG   0.0000
  29 H           -1.5851     0.9428     0.6721 H            1    LIG   0.0000
  30 H           -2.7951     0.5823    -1.3657 H            1    LIG   0.0000
  31 H            0.7940     0.2161    -3.4220 H            1    LIG   0.0000
  32 H            1.9956     0.5763    -1.3793 H            1    LIG   0.0000
@<TRIPOS>BOND
   1        1        2 1
   2        2        3 1
   3        3        4 1
   4        4        5 1
   5        5        6 2
   6        6        7 1
   7        7        8 1
   8        7        9 2
   9        9       10 1
  10        9       11 1
  11       11        5 1
  12        3       12 1
  13       12       13 ar
  14       13       14 ar
  15       14       15 ar
  16       15       16 1
  17       15       17 ar
  18       17       18 ar
  19       18       12 ar
  20        1       19 1
  21        1       20 1
  22        1       21 1
  23        2       22 1
  24        2       23 1
  25        4       24 1
  26        4       25 1
  27        8       26 1
  28        8       27 1
  29        8       28 1
  30       13       29 1
  31       14       30 1
  32       17       31 1
  33       18       32 1

@<TRIPOS>MOLECULE

  32   33
SMALL
USER_CHARGES
@<TRIPOS>ATOM
   1 C1           0.2272    -0.0710     3.0534 C.3          1    LIG   0.0000
   2 C2           0.2650     1.2211     2.2537 C.3          1    LIG   0.0000
   3 N3           1.0000     1.0000     1.0000 N.pl3        1    LIG   0.0000
   4 C4           2.4700     1.0000     1.0000 C.3          1    LIG   0.0000
   5 C5           2.9763     1.9204    -0.0969 C.2          1    LIG   0.0000
   6 N6           3.2455     3.1991    -0.0029 N.2          1    LIG   0.0000
   7 C7           3.6948     3.8111    -1.1422 C.2          1    LIG   0.0000
   8 C8           4.0618     5.2812    -1.2487 C.3          1    LIG   0.0000
   9 C9           3.8056     2.9973    -2.2280 C.2          1    LIG   0.0000
  10 Br10         4.3979     3.4148    -4.0490 Br           1    LIG   0.0000
  11 S11          3.3056     1.4588    -1.7004 S.3          1    LIG   0.0000
  12 C12          0.2999     0.7894    -0.1941 C.ar         1    LIG   0.0000
  13 C13         -0.0435     1.8777    -0.9900 C.ar         1    LIG   0.0000
  14 C14         -0.7397     1.6781    -2.1776 C.ar         1    LIG   0.0000
  15 C15         -1.0844     0.3836    -2.5528 C.ar         1    LIG   0.0000
  16 Cl16        -1.9751     0.1207    -4.0710 Cl           1    LIG   0.0000
  17 C17         -0.7458    -0.7103    -1.7626 C.ar         1    LIG   0.0000
  18 C18         -0.0499    -0.5012    -0.5765 C.ar         1    LIG   0.0000
  19 H           -0.2728     0.0794     3.9063 H            1    LIG   0.0000
  20 H           -0.2316    -0.7806     2.5188 H            1    LIG   0.0000
  21 H            1.1611    -0.3618     3.2614 H            1    LIG   0.0000
  22 H           -0.6689     1.5118     2.0458 H            1    LIG   0.0000
  23 H            0.7238     1.9307     2.7884 H            1    LIG   0.0000
  24 H            2.8033     0.0715     0.8363 H            1    LIG   0.0000
  25 H            2.8033     1.3225     1.8860 H            1    LIG   0.0000
  26 H            4.3609     5.4834    -2.1813 H            1    LIG   0.0000
  27 H            3.2637     5.8410    -1.0259 H            1    LIG   0.0000
  28 H            4.8024     5.4871    -0.6091 H            1    LIG   0.0000
  29 H            0.2102     2.8031    -0.7084 H            1    LIG   0.0000
  30 H           -0.9895     2.4557    -2.7546 H            1    LIG   0.0000
  31 H           -0.9997    -1.6357    -2.0439 H            1    LIG   0.0000
  32 H            0.1989    -1.2786     0.0011 H            1    LIG   0.0000
@<TRIPOS>BOND
   1        1        2 1
   2        2        3 1
   3        3        4 1
   4        4        5 1
   5        5        6 2
   6        6        7 1
   7        7        8 1
   8        7        9 2
   9        9       10 1
  10        9       11 1
  11       11        5 1
  12        3       12 1
  13       12       13 ar
  14       13       14 ar
  15       14       15 ar
  16       15       16 1
  17       15       17 ar
  18       17       18 ar
  19       18       12 ar
  20        1       19 1
  21        1       20 1
  22        1       21 1
  23        2       22 1
  24        2       23 1
  25        4       24 1
  26        4       25 1
  27        8       26 1
  28        8       27 1
  29        8       28 1
  30       13       29 1
  31       14       30 1
  32       17       31 1
  33       18       32 1

@<TRIPOS>MOLECULE

  32   33
SMALL
USER_CHARGES
@<TRIPOS>ATOM
   1 C1           0.2272     2.7087     2.5633 C.3          1    LIG   0.0000
   2 C2           0.2650     1.2211     2.2537 C.3          1    LIG   0.0000
   3 N3           1.0000     1.0000     1.0000 N.pl3        1    LIG   0.0000
   4 C4           2.4700     1.0000     1.0000 C.3          1    LIG   0.0000
   5 C5           2.9763    -0.4320     1.0000 C.2          1    LIG   0.0000
   6 N6           3.2455    -1.1818    -0.0400 N.2          1    LIG   0.0000
   7 C7           3.6948    -2.4480     0.2235 C.2          1    LIG   0.0000
   8 C8           4.0618    -3.4745    -0.8341 C.3          1    LIG   0.0000
   9 C9           3.8056    -2.7566     1.5449 C.2          1    LIG   0.0000
  10 Br10         4.3979    -4.4200     2.3956 Br           1    LIG   0.0000
  11 S11          3.3056    -1.3636     2.3844 S.3          1    LIG   0.0000
  12 C12          0.2999     0.7894    -0.1941 C.ar         1    LIG   0.0000
  13 C13         -1.0913     0.7912    -0.1841 C.ar         1    LIG   0.0000
  14 C14         -1.7951     0.5820    -1.3656 C.ar         1    LIG   0.0000
  15 C15         -1.0911     0.3723    -2.5469 C.ar         1    LIG   0.0000
  16 Cl16        -1.9850     0.1041    -4.0623 Cl           1    LIG   0.0000
  17 C17          0.3001     0.3681    -2.5659 C.ar         1    LIG   0.0000
  18 C18          0.9956     0.5778    -1.3797 C.ar         1    LIG   0.0000
  19 H           -0.2728     2.8591     3.4162 H            1    LIG   0.0000
  20 H            1.1611     3.0531     2.6593 H            1    LIG   0.0000
  21 H           -0.2316     3.1927     1.8181 H            1    LIG   0.0000
  22 H            0.7238     0.7371     2.9989 H            1    LIG   0.0000
  23 H           -0.6689     0.8767     2.1578 H            1    LIG   0.0000
  24 H            2.8033     1.4714     1.8165 H            1    LIG   0.0000
  25 H            2.8033     1.4714     0.1835 H            1    LIG   0.0000
  26 H            4.3609    -4.3188    -0.3896 H            1    LIG   0.0000
  27 H            3.2637    -3.6636    -1.4062 H            1    LIG   0.0000
  28 H            4.8024    -3.1169    -1.4030 H            1    LIG   0.0000
  29 H           -1.5851     0.9428     0.6721 H            1    LIG   0.0000
  30 H           -2.7951     0.5823    -1.3657 H            1    LIG   0.0000
  31 H            0.7940     0.2161    -3.4220 H            1    LIG   0.0000
  32 H            1.9956     0.5763    -1.3793 H            1    LIG   0.0000
@<TRIPOS>BOND
   1        1        2 1
   2        2        3 1
   3        3        4 1
   4        4        5 1
   5        5        6 2
   6        6        7 1
   7        7        8 1
   8        7        9 2
   9        9       10 1
  10        9       11 1
  11       11        5 1
  12        3       12 1
  13       12       13 ar
  14       13       14 ar
  15       14       15 ar
  16       15       16 1
  17       15       17 ar
  18       17       18 ar
  19       18       12 ar
  20        1       19 1
  21        1       20 1
  22        1       21 1
  23        2       22 1
  24        2       23 1
  25        4       24 1
  26        4       25 1
  27        8       26 1
  28        8       27 1
  29        8       28 1
  30       13       29 1
  31       14       30 1
  32       17       31 1
  33       18       32 1

@<TRIPOS>MOLECULE

  32   33
SMALL
USER_CHARGES
@<TRIPOS>ATOM
   1 C1           0.2272    -0.0710     3.0534 C.3          1    LIG   0.0000
   2 C2           0.2650     1.2211     2.2537 C.3          1    LIG   0.0000
   3 N3           1.0000     1.0000     1.0000 N.pl3        1    LIG   0.0000
   4 C4           2.4700     1.0000     1.0000 C.3          1    LIG   0.0000
   5 C5           2.9763    -0.4320     1.0000 C.2          1    LIG   0.0000
   6 N6           4.2223    -0.8364     1.0039 N.2          1    LIG   0.0000
   7 C7           4.4218    -2.1910     1.0055 C.2          1    LIG   0.0000
   8 C8           5.7823    -2.8662     1.0093 C.3          1    LIG   0.0000
   9 C9           3.2852    -2.9406     1.0070 C.2          1    LIG   0.0000
  10 Br10         3.0718    -4.8889     1.0110 Br           1    LIG   0.0000
  11 S11          2.0004    -1.8250     1.0000 S.3          1    LIG   0.0000
  12 C12          0.2999     0.7894    -0.1941 C.ar         1    LIG   0.0000
  13 C13         -0.0435     1.8777    -0.9900 C.ar         1    LIG   0.0000
  14 C14         -0.7397     1.6781    -2.1776 C.ar         1    LIG   0.0000
  15 C15         -1.0844     0.3836    -2.5528 C.ar         1    LIG   0.0000
  16 Cl16        -1.9751     0.1207    -4.0710 Cl           1    LIG   0.0000
  17 C17         -0.7458    -0.7103    -1.7626 C.ar         1    LIG   0.0000
  18 C18         -0.0499    -0.5012    -0.5765 C.ar         1    LIG   0.0000
  19 H           -0.2728     0.0794     3.9063 H            1    LIG   0.0000
  20 H           -0.2316    -0.7806     2.5188 H            1    LIG   0.0000
  21 H            1.1611    -0.3618     3.2614 H            1    LIG   0.0000
  22 H           -0.6689     1.5118     2.0458 H            1    LIG   0.0000
  23 H            0.7238     1.9307     2.7884 H            1    LIG   0.0000
  24 H            2.8033     1.4714     1.8165 H            1    LIG   0.0000
  25 H            2.8033     1.4714     0.1835 H            1    LIG   0.0000
  26 H            5.6618    -3.8589     1.0098 H            1    LIG   0.0000
  27 H            6.2924    -2.5928     0.1937 H            1    LIG   0.0000
  28 H            6.2885    -2.5915     1.8267 H            1    LIG   0.0000
  29 H            0.2102     2.8031    -0.7084 H            1    LIG   0.0000
  30 H           -0.9895     2.4557    -2.7546 H            1    LIG   0.0000
  31 H           -0.9997    -1.6357    -2.0439 H            1    LIG   0.0000
  32 H            0.1989    -1.2786     0.0011 H            1    LIG   0.0000
@<TRIPOS>BOND
   1        1        2 1
   2        2        3 1
   3        3        4 1
   4        4        5 1
   5        5        6 2
   6        6        7 1
   7        7        8 1
   8        7        9 2
   9        9       10 1
  10        9       11 1
  11       11        5 1
  12        3       12 1
  13       12       13 ar
  14       13       14 ar
  15       14       15 ar
  16       15       16 1
  17       15       17 ar
  18       17       18 ar
  19       18       12 ar
  20        1       19 1
  21        1       20 1
  22        1       21 1
  23        2       22 1
  24        2       23 1
  25        4       24 1
  26        4       25 1
  27        8       26 1
  28        8       27 1
  29        8       28 1
  30       13       29 1
  31       14       30 1
  32       17       31 1
  33       18       32 1

@<TRIPOS>MOLECULE

  32   33
SMALL
USER_CHARGES
@<TRIPOS>ATOM
   1 C1           0.2272    -0.0710     3.0534 C.3          1    LIG   0.0000
   2 C2           0.2650     1.2211     2.2537 C.3          1    LIG   0.0000
   3 N3           1.0000     1.0000     1.0000 N.pl3        1    LIG   0.0000
   4 C4           2.4700     1.0000     1.0000 C.3          1    LIG   0.0000
   5 C5           2.9763    -0.4320     1.0000 C.2          1    LIG   0.0000
   6 N6           2.2614    -1.5298     0.9961 N.2          1    LIG   0.0000
   7 C7           2.9576    -2.7086     0.9945 C.2          1    LIG   0.0000
   8 C8           2.3238    -4.0890     0.9907 C.3          1    LIG   0.0000
   9 C9           4.3128    -2.5773     0.9930 C.2          1    LIG   0.0000
  10 Br10         5.7033    -3.9585     0.9890 Br           1    LIG   0.0000
  11 S11          4.6108    -0.9021     1.0000 S.3          1    LIG   0.0000
  12 C12          0.2999     0.7894    -0.1941 C.ar         1    LIG   0.0000
  13 C13         -0.0435     1.8777    -0.9900 C.ar         1    LIG   0.0000
  14 C14         -0.7397     1.6781    -2.1776 C.ar         1    LIG   0.0000
  15 C15         -1.0844     0.3836    -2.5528 C.ar         1    LIG   0.0000
  16 Cl16        -1.9751     0.1207    -4.0710 Cl           1    LIG   0.0000
  17 C17         -0.7458    -0.7103    -1.7626 C.ar         1    LIG   0.0000
  18 C18         -0.0499    -0.5012    -0.5765 C.ar         1    LIG   0.0000
  19 H           -0.2728     0.0794     3.9063 H            1    LIG   0.0000
  20 H           -0.2316    -0.7806     2.5188 H            1    LIG   0.0000
  21 H            1.1611    -0.3618     3.2614 H            1    LIG   0.0000
  22 H           -0.6689     1.5118     2.0458 H            1    LIG   0.0000
  23 H            0.7238     1.9307     2.7884 H            1    LIG   0.0000
  24 H            2.8033     1.4714     1.8165 H            1    LIG   0.0000
  25 H            2.8033     1.4714     0.1835 H            1    LIG   0.0000
  26 H            3.0415    -4.7853     0.9902 H            1    LIG   0.0000
  27 H            1.7552    -4.1969     1.8063 H            1    LIG   0.0000
  28 H            1.7574    -4.1934     0.1733 H            1    LIG   0.0000
  29 H            0.2102     2.8031    -0.7084 H            1    LIG   0.0000
  30 H           -0.9895     2.4557    -2.7546 H            1    LIG   0.0000
  31 H           -0.9997    -1.6357    -2.0439 H            1    LIG   0.0000
  32 H            0.1989    -1.2786     0.0011 H            1    LIG   0.0000
@<TRIPOS>BOND
   1        1        2 1
   2        2        3 1
   3        3        4 1
   4        4        5 1
   5        5        6 2
   6        6        7 1
   7        7        8 1
   8        7        9 2
   9        9       10 1
  10        9       11 1
  11       11        5 1
  12        3       12 1
  13       12       13 ar
  14       13       14 ar
  15       14       15 ar
  16       15       16 1
  17       15       17 ar
  18       17       18 ar
  19       18       12 ar
  20        1       19 1
  21        1       20 1
  22        1       21 1
  23        2       22 1
  24        2       23 1
  25        4       24 1
  26        4       25 1
  27        8       26 1
  28        8       27 1
  29        8       28 1
  30       13       29 1
  31       14       30 1
  32       17       31 1
  33       18       32 1

@<TRIPOS>MOLECULE

  32   33
SMALL
USER_CHARGES
@<TRIPOS>ATOM
   1 C1           0.2272     2.7087     2.5633 C.3          1    LIG   0.0000
   2 C2           0.2650     1.2211     2.2537 C.3          1    LIG   0.0000
   3 N3           1.0000     1.0000     1.0000 N.pl3        1    LIG   0.0000
   4 C4           2.4700     1.0000     1.0000 C.3          1    LIG   0.0000
   5 C5           2.9763    -0.4320     1.0000 C.2          1    LIG   0.0000
   6 N6           3.2382    -1.1844     2.0400 N.2          1    LIG   0.0000
   7 C7           3.6845    -2.4516     1.7765 C.2          1    LIG   0.0000
   8 C8           4.0443    -3.4807     2.8341 C.3          1    LIG   0.0000
   9 C9           3.7924    -2.7613     0.4551 C.2          1    LIG   0.0000
  10 Br10         4.3772    -4.4273    -0.3956 Br           1    LIG   0.0000
  11 S11          3.3056    -1.3636    -0.3844 S.3          1    LIG   0.0000
  12 C12          0.2999     0.7894    -0.1941 C.ar         1    LIG   0.0000
  13 C13         -1.0913     0.7912    -0.1841 C.ar         1    LIG   0.0000
  14 C14         -1.7951     0.5820    -1.3656 C.ar         1    LIG   0.0000
  15 C15         -1.0911     0.3723    -2.5469 C.ar         1    LIG   0.0000
  16 Cl16        -1.9850     0.1041    -4.0623 Cl           1    LIG   0.0000
  17 C17          0.3001     0.3681    -2.5659 C.ar         1    LIG   0.0000
  18 C18          0.9956     0.5778    -1.3797 C.ar         1    LIG   0.0000
  19 H           -0.2728     2.8591     3.4162 H            1    LIG   0.0000
  20 H            1.1611     3.0531     2.6593 H            1    LIG   0.0000
  21 H           -0.2316     3.1927     1.8181 H            1    LIG   0.0000
  22 H            0.7238     0.7371     2.9989 H            1    LIG   0.0000
  23 H           -0.6689     0.8767     2.1578 H            1    LIG   0.0000
  24 H            2.8033     1.4714     1.8165 H            1    LIG   0.0000
  25 H            2.8033     1.4714     0.1835 H            1    LIG   0.0000
  26 H            4.3424    -4.3254     2.3896 H            1    LIG   0.0000
  27 H            4.7840    -3.1261     3.4062 H            1    LIG   0.0000
  28 H            3.2435    -3.6680     3.4030 H            1    LIG   0.0000
  29 H           -1.5851     0.9428     0.6721 H            1    LIG   0.0000
  30 H           -2.7951     0.5823    -1.3657 H            1    LIG   0.0000
  31 H            0.7940     0.2161    -3.4220 H            1    LIG   0.0000
  32 H            1.9956     0.5763    -1.3793 H            1    LIG   0.0000
@<TRIPOS>BOND
   1        1        2 1
   2        2        3 1
   3        3        4 1
   4        4        5 1
   5        5        6 2
   6        6        7 1
   7        7        8 1
   8        7        9 2
   9        9       10 1
  10        9       11 1
  11       11        5 1
  12        3       12 1
  13       12       13 ar
  14       13       14 ar
  15       14       15 ar
  16       15       16 1
  17       15       17 ar
  18       17       18 ar
  19       18       12 ar
  20        1       19 1
  21        1       20 1
  22        1       21 1
  23        2       22 1
  24        2       23 1
  25        4       24 1
  26        4       25 1
  27        8       26 1
  28        8       27 1
  29        8       28 1
  30       13       29 1
  31       14       30 1
  32       17       31 1
  33       18       32 1

@<TRIPOS>MOLECULE

  32   33
SMALL
USER_CHARGES
@<TRIPOS>ATOM
   1 C1           0.2272     2.7087     2.5633 C.3          1    LIG   0.0000
   2 C2           0.2650     1.2211     2.2537 C.3          1    LIG   0.0000
   3 N3           1.0000     1.0000     1.0000 N.pl3        1    LIG   0.0000
   4 C4           2.4700     1.0000     1.0000 C.3          1    LIG   0.0000
   5 C5           2.9763    -0.2401     0.2840 C.2          1    LIG   0.0000
   6 N6           3.2382    -1.4117     0.8084 N.2          1    LIG   0.0000
   7 C7           3.6845    -2.3774    -0.0534 C.2          1    LIG   0.0000
   8 C8           4.0443    -3.7975     0.3481 C.3          1    LIG   0.0000
   9 C9           3.7924    -1.9849    -1.3526 C.2          1    LIG   0.0000
  10 Br10         4.3772    -3.0024    -2.9223 Br           1    LIG   0.0000
  11 S11          3.3056    -0.3547    -1.3807 S.3          1    LIG   0.0000
  12 C12          0.2999     0.7894    -0.1941 C.ar         1    LIG   0.0000
  13 C13         -0.0435     1.8777    -0.9900 C.ar         1    LIG   0.0000
  14 C14         -0.7397     1.6781    -2.1776 C.ar         1    LIG   0.0000
  15 C15         -1.0844     0.3836    -2.5528 C.ar         1    LIG   0.0000
  16 Cl16        -1.9751     0.1207    -4.0710 Cl           1    LIG   0.0000
  17 C17         -0.7458    -0.7103    -1.7626 C.ar         1    LIG   0.0000
  18 C18         -0.0499    -0.5012    -0.5765 C.ar         1    LIG   0.0000
  19 H           -0.2728     2.8591     3.4162 H            1    LIG   0.0000
  20 H            1.1611     3.0531     2.6593 H            1    LIG   0.0000
  21 H           -0.2316     3.1927     1.8181 H            1    LIG   0.0000
  22 H            0.7238     0.7371     2.9989 H            1    LIG   0.0000
  23 H           -0.6689     0.8767     2.1578 H            1    LIG   0.0000
  24 H            2.8033     1.0000     1.9428 H            1    LIG   0.0000
  25 H            2.8033     1.8165     0.5286 H            1    LIG   0.0000
  26 H            4.3424    -4.3067    -0.4593 H            1    LIG   0.0000
  27 H            4.7840    -3.7764     1.0208 H            1    LIG   0.0000
  28 H            3.2435    -4.2441     0.7470 H            1    LIG   0.0000
  29 H            0.2102     2.8031    -0.7084 H            1    LIG   0.0000
  30 H           -0.9895     2.4557    -2.7546 H            1    LIG   0.0000
  31 H           -0.9997    -1.6357    -2.0439 H            1    LIG   0.0000
  32 H            0.1989    -1.2786     0.0011 H            1    LIG   0.0000
@<TRIPOS>BOND
   1        1        2 1
   2        2        3 1
   3        3        4 1
   4        4        5 1
   5        5        6 2
   6        6        7 1
   7        7        8 1
   8        7        9 2
   9        9       10 1
  10        9       11 1
  11       11        5 1
  12        3       12 1
  13       12       13 ar
  14       13       14 ar
  15       14       15 ar
  16       15       16 1
  17       15       17 ar
  18       17       18 ar
  19       18       12 ar
  20        1       19 1
  21        1       20 1
  22        1       21 1
  23        2       22 1
  24        2       23 1
  25        4       24 1
  26        4       25 1
  27        8       26 1
  28        8       27 1
  29        8       28 1
  30       13       29 1
  31       14       30 1
  32       17       31 1
  33       18       32 1

@<TRIPOS>MOLECULE

  32   33
SMALL
USER_CHARGES
@<TRIPOS>ATOM
   1 C1           0.2272     2.7087     2.5633 C.3          1    LIG   0.0000
   2 C2           0.2650     1.2211     2.2537 C.3          1    LIG   0.0000
   3 N3           1.0000     1.0000     1.0000 N.pl3        1    LIG   0.0000
   4 C4           2.4700     1.0000     1.0000 C.3          1    LIG   0.0000
   5 C5           2.9763     1.2487     2.4102 C.2          1    LIG   0.0000
   6 N6           3.2455     0.3547     3.3293 N.2          1    LIG   0.0000
   7 C7           3.6948     0.8341     4.5304 C.2          1    LIG   0.0000
   8 C8           4.0618    -0.0293     5.7250 C.3          1    LIG   0.0000
   9 C9           3.8056     2.1890     4.6049 C.2          1    LIG   0.0000
  10 Br10         4.3979     3.3155     6.0953 Br           1    LIG   0.0000
  11 S11          3.3056     2.7738     3.0872 S.3          1    LIG   0.0000
  12 C12          0.2999     0.7894    -0.1941 C.ar         1    LIG   0.0000
  13 C13         -1.0913     0.7912    -0.1841 C.ar         1    LIG   0.0000
  14 C14         -1.7951     0.5820    -1.3656 C.ar         1    LIG   0.0000
  15 C15         -1.0911     0.3723    -2.5469 C.ar         1    LIG   0.0000
  16 Cl16        -1.9850     0.1041    -4.0623 Cl           1    LIG   0.0000
  17 C17          0.3001     0.3681    -2.5659 C.ar         1    LIG   0.0000
  18 C18          0.9956     0.5778    -1.3797 C.ar         1    LIG   0.0000
  19 H           -0.2728     2.8591     3.4162 H            1    LIG   0.0000
  20 H            1.1611     3.0531     2.6593 H            1    LIG   0.0000
  21 H           -0.2316     3.1927     1.8181 H            1    LIG   0.0000
  22 H            0.7238     0.7371     2.9989 H            1    LIG   0.0000
  23 H           -0.6689     0.8767     2.1578 H            1    LIG   0.0000
  24 H            2.8033     1.7222     0.3940 H            1    LIG   0.0000
  25 H            2.8033     0.1140     0.6775 H            1    LIG   0.0000
  26 H            4.3609     0.5551     6.4793 H            1    LIG   0.0000
  27 H            3.2637    -0.5598     6.0106 H            1    LIG   0.0000
  28 H            4.8024    -0.6516     5.4716 H            1    LIG   0.0000
  29 H           -1.5851     0.9428     0.6721 H            1    LIG   0.0000
  30 H           -2.7951     0.5823    -1.3657 H            1    LIG   0.0000
  31 H            0.7940     0.2161    -3.4220 H            1    LIG   0.0000
  32 H            1.9956     0.5763    -1.3793 H            1    LIG   0.0000
@<TRIPOS>BOND
   1        1        2 1
   2        2        3 1
   3        3        4 1
   4        4        5 1
   5        5        6 2
   6        6        7 1
   7        7        8 1
   8        7        9 2
   9        9       10 1
  10        9       11 1
  11       11        5 1
  12        3       12 1
  13       12       13 ar
  14       13       14 ar
  15       14       15 ar
  16       15       16 1
  17       15       17 ar
  18       17       18 ar
  19       18       12 ar
  20        1       19 1
  21        1       20 1
  22        1       21 1
  23        2       22 1
  24        2       23 1
  25        4       24 1
  26        4       25 1
  27        8       26 1
  28        8       27 1
  29        8       28 1
  30       13       29 1
  31       14       30 1
  32       17       31 1
  33       18       32 1

@<TRIPOS>MOLECULE

  32   33
SMALL
USER_CHARGES
@<TRIPOS>ATOM
   1 C1           0.2272     2.7087     2.5633 C.3          1    LIG   0.0000
   2 C2           0.2650     1.2211     2.2537 C.3          1    LIG   0.0000
   3 N3           1.0000     1.0000     1.0000 N.pl3        1    LIG   0.0000
   4 C4           2.4700     1.0000     1.0000 C.3          1    LIG   0.0000
   5 C5           2.9763     1.2487     2.4102 C.2          1    LIG   0.0000
   6 N6           3.2382     2.4035     2.9706 N.2          1    LIG   0.0000
   7 C7           3.6845     2.3640     4.2643 C.2          1    LIG   0.0000
   8 C8           4.0443     3.5843     5.0941 C.3          1    LIG   0.0000
   9 C9           3.7924     1.1165     4.7988 C.2          1    LIG   0.0000
  10 Br10         4.3772     0.5681     6.5872 Br           1    LIG   0.0000
  11 S11          3.3056     0.0471     3.5680 S.3          1    LIG   0.0000
  12 C12          0.2999     0.7894    -0.1941 C.ar         1    LIG   0.0000
  13 C13         -1.0913     0.7912    -0.1841 C.ar         1    LIG   0.0000
  14 C14         -1.7951     0.5820    -1.3656 C.ar         1    LIG   0.0000
  15 C15         -1.0911     0.3723    -2.5469 C.ar         1    LIG   0.0000
  16 Cl16        -1.9850     0.1041    -4.0623 Cl           1    LIG   0.0000
  17 C17          0.3001     0.3681    -2.5659 C.ar         1    LIG   0.0000
  18 C18          0.9956     0.5778    -1.3797 C.ar         1    LIG   0.0000
  19 H           -0.2728     2.8591     3.4162 H            1    LIG   0.0000
  20 H            1.1611     3.0531     2.6593 H            1    LIG   0.0000
  21 H           -0.2316     3.1927     1.8181 H            1    LIG   0.0000
  22 H            0.7238     0.7371     2.9989 H            1    LIG   0.0000
  23 H           -0.6689     0.8767     2.1578 H            1    LIG   0.0000
  24 H            2.8033     1.7222     0.3940 H            1    LIG   0.0000
  25 H            2.8033     0.1140     0.6775 H            1    LIG   0.0000
  26 H            4.3424     3.2932     6.0032 H            1    LIG   0.0000
  27 H            4.7840     4.0861     4.6456 H            1    LIG   0.0000
  28 H            3.2435     4.1771     5.1798 H            1    LIG   0.0000
  29 H           -1.5851     0.9428     0.6721 H            1    LIG   0.0000
  30 H           -2.7951     0.5823    -1.3657 H            1    LIG   0.0000
  31 H            0.7940     0.2161    -3.4220 H            1    LIG   0.0000
  32 H            1.9956     0.5763    -1.3793 H            1    LIG   0.0000
@<TRIPOS>BOND
   1        1        2 1
   2        2        3 1
   3        3        4 1
   4        4        5 1
   5        5        6 2
   6        6        7 1
   7        7        8 1
   8        7        9 2
   9        9       10 1
  10        9       11 1
  11       11        5 1
  12        3       12 1
  13       12       13 ar
  14       13       14 ar
  15       14       15 ar
  16       15       16 1
  17       15       17 ar
  18       17       18 ar
  19       18       12 ar
  20        1       19 1
  21        1       20 1
  22        1       21 1
  23        2       22 1
  24        2       23 1
  25        4       24 1
  26        4       25 1
  27        8       26 1
  28        8       27 1
  29        8       28 1
  30       13       29 1
  31       14       30 1
  32       17       31 1
  33       18       32 1

@<TRIPOS>MOLECULE

  32   33
SMALL
USER_CHARGES
@<TRIPOS>ATOM
   1 C1           0.2272     2.7087     2.5633 C.3          1    LIG   0.0000
   2 C2           0.2650     1.2211     2.2537 C.3          1    LIG   0.0000
   3 N3           1.0000     1.0000     1.0000 N.pl3        1    LIG   0.0000
   4 C4           2.4700     1.0000     1.0000 C.3          1    LIG   0.0000
   5 C5           2.9763     0.7513    -0.4102 C.2          1    LIG   0.0000
   6 N6           2.2614     0.5645    -1.4920 N.2          1    LIG   0.0000
   7 C7           2.9576     0.3614    -2.6532 C.2          1    LIG   0.0000
   8 C8           2.3238     0.1254    -4.0133 C.3          1    LIG   0.0000
   9 C9           4.3128     0.3857    -2.5242 C.2          1    LIG   0.0000
  10 Br10         5.7033     0.1498    -3.8850 Br           1    LIG   0.0000
  11 S11          4.6108     0.6697    -0.8732 S.3          1    LIG   0.0000
  12 C12          0.2999     0.7894    -0.1941 C.ar         1    LIG   0.0000
  13 C13         -0.0435     1.8777    -0.9900 C.ar         1    LIG   0.0000
  14 C14         -0.7397     1.6781    -2.1776 C.ar         1    LIG   0.0000
  15 C15         -1.0844     0.3836    -2.5528 C.ar         1    LIG   0.0000
  16 Cl16        -1.9751     0.1207    -4.0710 Cl           1    LIG   0.0000
  17 C17         -0.7458    -0.7103    -1.7626 C.ar         1    LIG   0.0000
  18 C18         -0.0499    -0.5012    -0.5765 C.ar         1    LIG   0.0000
  19 H           -0.2728     2.8591     3.4162 H            1    LIG   0.0000
  20 H            1.1611     3.0531     2.6593 H            1    LIG   0.0000
  21 H           -0.2316     3.1927     1.8181 H            1    LIG   0.0000
  22 H            0.7238     0.7371     2.9989 H            1    LIG   0.0000
  23 H           -0.6689     0.8767     2.1578 H            1    LIG   0.0000
  24 H            2.8033     0.2778     1.6060 H            1    LIG   0.0000
  25 H            2.8033     1.8860     1.3225 H            1    LIG   0.0000
  26 H            3.0415     0.0050    -4.6991 H            1    LIG   0.0000
  27 H            1.7552    -0.6964    -3.9780 H            1    LIG   0.0000
  28 H            1.7574     0.9123    -4.2581 H            1    LIG   0.0000
  29 H            0.2102     2.8031    -0.7084 H            1    LIG   0.0000
  30 H           -0.9895     2.4557    -2.7546 H            1    LIG   0.0000
  31 H           -0.9997    -1.6357    -2.0439 H            1    LIG   0.0000
  32 H            0.1989    -1.2786     0.0011 H            1    LIG   0.0000
@<TRIPOS>BOND
   1        1        2 1
   2        2        3 1
   3        3        4 1
   4        4        5 1
   5        5        6 2
   6        6        7 1
   7        7        8 1
   8        7        9 2
   9        9       10 1
  10        9       11 1
  11       11        5 1
  12        3       12 1
  13       12       13 ar
  14       13       14 ar
  15       14       15 ar
  16       15       16 1
  17       15       17 ar
  18       17       18 ar
  19       18       12 ar
  20        1       19 1
  21        1       20 1
  22        1       21 1
  23        2       22 1
  24        2       23 1
  25        4       24 1
  26        4       25 1
  27        8       26 1
  28        8       27 1
  29        8       28 1
  30       13       29 1
  31       14       30 1
  32       17       31 1
  33       18       32 1

