@<TRIPOS>MOLECULE
*****
 32 33 0 0 0
SMALL
USER_CHARGES

@<TRIPOS>ATOM
      1 C1          0.2272    2.7087    2.5633 C.3     1  LIG1        0.0000
      2 C2          0.2650    1.2211    2.2537 C.3     1  LIG1        0.0000
      3 N3          1.0000    1.0000    1.0000 N.pl3   1  LIG1        0.0000
      4 C4          2.4700    1.0000    1.0000 C.3     1  LIG1        0.0000
      5 C5          2.9763   -0.2401    0.2840 C.2     1  LIG1        0.0000
      6 N6          3.2382   -1.4117    0.8084 N.2     1  LIG1        0.0000
      7 C7          3.6845   -2.3774   -0.0534 C.2     1  LIG1        0.0000
      8 C8          4.0443   -3.7975    0.3481 C.3     1  LIG1        0.0000
      9 C9          3.7924   -1.9849   -1.3526 C.2     1  LIG1        0.0000
     10 Br10        4.3772   -3.0024   -2.9223 Br      1  LIG1        0.0000
     11 S11         3.3056   -0.3547   -1.3807 S.3     1  LIG1        0.0000
     12 C12         0.2999    0.7894   -0.1941 C.ar    1  LIG1        0.0000
     13 C13        -0.0435    1.8777   -0.9900 C.ar    1  LIG1        0.0000
     14 C14        -0.7397    1.6781   -2.1776 C.ar    1  LIG1        0.0000
     15 C15        -1.0844    0.3836   -2.5528 C.ar    1  LIG1        0.0000
     16 Cl16       -1.9751    0.1207   -4.0710 Cl      1  LIG1        0.0000
     17 C17        -0.7458   -0.7103   -1.7626 C.ar    1  LIG1        0.0000
     18 C18        -0.0499   -0.5012   -0.5765 C.ar    1  LIG1        0.0000
     19 H          -0.2728    2.8591    3.4162 H       1  LIG1        0.0000
     20 H           1.1611    3.0531    2.6593 H       1  LIG1        0.0000
     21 H          -0.2316    3.1927    1.8181 H       1  LIG1        0.0000
     22 H           0.7238    0.7371    2.9989 H       1  LIG1        0.0000
     23 H          -0.6689    0.8767    2.1578 H       1  LIG1        0.0000
     24 H           2.8033    1.0000    1.9428 H       1  LIG1        0.0000
     25 H           2.8033    1.8165    0.5286 H       1  LIG1        0.0000
     26 H           4.3424   -4.3067   -0.4593 H       1  LIG1        0.0000
     27 H           4.7840   -3.7764    1.0208 H       1  LIG1        0.0000
     28 H           3.2435   -4.2441    0.7470 H       1  LIG1        0.0000
     29 H           0.2102    2.8031   -0.7084 H       1  LIG1        0.0000
     30 H          -0.9895    2.4557   -2.7546 H       1  LIG1        0.0000
     31 H          -0.9997   -1.6357   -2.0439 H       1  LIG1        0.0000
     32 H           0.1989   -1.2786    0.0011 H       1  LIG1        0.0000
@<TRIPOS>BOND
     1     1     2    1
     2     2     3    1
     3     3     4    1
     4     4     5    1
     5     5     6    2
     6     6     7    1
     7     7     8    1
     8     7     9    2
     9     9    10    1
    10     9    11    1
    11    11     5    1
    12     3    12    1
    13    12    13   ar
    14    13    14   ar
    15    14    15   ar
    16    15    16    1
    17    15    17   ar
    18    17    18   ar
    19    18    12   ar
    20     1    19    1
    21     1    20    1
    22     1    21    1
    23     2    22    1
    24     2    23    1
    25     4    24    1
    26     4    25    1
    27     8    26    1
    28     8    27    1
    29     8    28    1
    30    13    29    1
    31    14    30    1
    32    17    31    1
    33    18    32    1
