@<TRIPOS>MOLECULE
*****
 32 33 0 0 0
SMALL
USER_CHARGES

@<TRIPOS>ATOM
      1 C1          0.2272    2.7087    2.5633 C.3     1  LIG1        0.0000
      2 C2          0.2650    1.2211    2.2537 C.3     1  LIG1        0.0000
      3 N3          1.0000    1.0000    1.0000 N.pl3   1  LIG1        0.0000
      4 C4          2.4700    1.0000    1.0000 C.3     1  LIG1        0.0000
      5 C5          2.9763    1.2487    2.4102 C.2     1  LIG1        0.0000
      6 N6          3.2455    0.3547    3.3293 N.2     1  LIG1        0.0000
      7 C7          3.6948    0.8341    4.5304 C.2     1  LIG1        0.0000
      8 C8          4.0618   -0.0293    5.7250 C.3     1  LIG1        0.0000
      9 C9          3.8056    2.1890    4.6049 C.2     1  LIG1        0.0000
     10 Br10        4.3979    3.3155    6.0953 Br      1  LIG1        0.0000
     11 S11         3.3056    2.7738    3.0872 S.3     1  LIG1        0.0000
     12 C12         0.2999    0.7894   -0.1941 C.ar    1  LIG1        0.0000
     13 C13        -1.0913    0.7912   -0.1841 C.ar    1  LIG1        0.0000
     14 C14        -1.7951    0.5820   -1.3656 C.ar    1  LIG1        0.0000
     15 C15        -1.0911    0.3723   -2.5469 C.ar    1  LIG1        0.0000
     16 Cl16       -1.9850    0.1041   -4.0623 Cl      1  LIG1        0.0000
     17 C17         0.3001    0.3681   -2.5659 C.ar    1  LIG1        0.0000
     18 C18         0.9956    0.5778   -1.3797 C.ar    1  LIG1        0.0000
     19 H          -0.2728    2.8591    3.4162 H       1  LIG1        0.0000
     20 H           1.1611    3.0531    2.6593 H       1  LIG1        0.0000
     21 H          -0.2316    3.1927    1.8181 H       1  LIG1        0.0000
     22 H           0.7238    0.7371    2.9989 H       1  LIG1        0.0000
     23 H          -0.6689    0.8767    2.1578 H       1  LIG1        0.0000
     24 H           2.8033    1.7222    0.3940 H       1  LIG1        0.0000
     25 H           2.8033    0.1140    0.6775 H       1  LIG1        0.0000
     26 H           4.3609    0.5551    6.4793 H       1  LIG1        0.0000
     27 H           3.2637   -0.5598    6.0106 H       1  LIG1        0.0000
     28 H           4.8024   -0.6516    5.4716 H       1  LIG1        0.0000
     29 H          -1.5851    0.9428    0.6721 H       1  LIG1        0.0000
     30 H          -2.7951    0.5823   -1.3657 H       1  LIG1        0.0000
     31 H           0.7940    0.2161   -3.4220 H       1  LIG1        0.0000
     32 H           1.9956    0.5763   -1.3793 H       1  LIG1        0.0000
@<TRIPOS>BOND
     1     1     2    1
     2     2     3    1
     3     3     4    1
     4     4     5    1
     5     5     6    2
     6     6     7    1
     7     7     8    1
     8     7     9    2
     9     9    10    1
    10     9    11    1
    11    11     5    1
    12     3    12    1
    13    12    13   ar
    14    13    14   ar
    15    14    15   ar
    16    15    16    1
    17    15    17   ar
    18    17    18   ar
    19    18    12   ar
    20     1    19    1
    21     1    20    1
    22     1    21    1
    23     2    22    1
    24     2    23    1
    25     4    24    1
    26     4    25    1
    27     8    26    1
    28     8    27    1
    29     8    28    1
    30    13    29    1
    31    14    30    1
    32    17    31    1
    33    18    32    1
