@<TRIPOS>MOLECULE

  73   76
SMALL
USER_CHARGES
@<TRIPOS>ATOM
   1 C1           3.6484    -0.2911     7.1242 C.3          1    LIG   0.0000
   2 O2           3.2712    -1.0815     6.0064 O.3          1    LIG   0.0000
   3 C3           4.3277    -1.3273     5.0900 C.3          1    LIG   0.0000
   4 C4           3.8132    -2.1778     3.9400 C.3          1    LIG   0.0000
   5 N5           2.7247    -1.4671     3.2537 N.am         1    LIG   0.0000
   6 C6           3.0145    -0.4799     2.3490 C.2          1    LIG   0.0000
   7 O7           4.1569    -0.1954     2.1168 O.2          1    LIG   0.0000
   8 C8           1.8885     0.2552     1.6392 C.3          1    LIG   0.0000
   9 C9           0.9762    -0.7065     0.8938 C.3          1    LIG   0.0000
  10 C10          0.1495     0.0288    -0.1484 C.3          1    LIG   0.0000
  11 C11         -0.0276     1.5128     0.1539 C.3          1    LIG   0.0000
  12 C12         -0.7794     1.7500     1.4577 C.3          1    LIG   0.0000
  13 N13          1.3024     2.1417     0.1852 N.pl3        1    LIG   0.0000
  14 C14          1.5199     3.4604    -0.2291 C.2          1    LIG   0.0000
  15 N15          2.6659     4.0988    -0.2354 N.2          1    LIG   0.0000
  16 N16          2.4743     5.3271    -0.6825 N.2          1    LIG   0.0000
  17 C17          1.2154     5.5003    -0.9895 C.2          1    LIG   0.0000
  18 C18          0.6131     6.7092    -1.5198 C.2          1    LIG   0.0000
  19 C19          0.9601     7.3101    -2.6925 C.2          1    LIG   0.0000
  20 N20          0.1649     8.4074    -2.8220 N.pl3        1    LIG   0.0000
  21 C21          0.2132     9.3467    -3.9518 C.3          1    LIG   0.0000
  22 C22         -0.6725     8.5020    -1.7482 C.ar         1    LIG   0.0000
  23 C23         -1.6509     9.4339    -1.4143 C.ar         1    LIG   0.0000
  24 C24         -2.3874     9.3245    -0.2400 C.ar         1    LIG   0.0000
  25 C25         -2.1362     8.2593     0.6179 C.ar         1    LIG   0.0000
  26 C26         -1.1555     7.3338     0.2748 C.ar         1    LIG   0.0000
  27 C27         -0.4231     7.4481    -0.9044 C.ar         1    LIG   0.0000
  28 N28          0.5858     4.3302    -0.7040 N.pl3        1    LIG   0.0000
  29 C29         -0.8450     4.0530    -0.8867 C.3          1    LIG   0.0000
  30 C30         -1.0805     3.5054    -2.2849 C.2          1    LIG   0.0000
  31 O31         -0.1566     3.3650    -3.0378 O.2          1    LIG   0.0000
  32 N32         -2.3474     3.1722    -2.6857 N.am         1    LIG   0.0000
  33 C33         -2.5752     2.6426    -4.0379 C.3          1    LIG   0.0000
  34 C34         -3.1851     1.2536    -3.9420 C.3          1    LIG   0.0000
  35 C35         -3.5244     3.5620    -4.7889 C.3          1    LIG   0.0000
  36 C36          2.4117     1.3107     0.6777 C.3          1    LIG   0.0000
  37 H            1.3403     0.7199     2.3346 H            1    LIG   0.0000
  38 H           -0.5525     1.9248    -0.5909 H            1    LIG   0.0000
  39 H            2.8576    -0.1606     7.7222 H            1    LIG   0.0000
  40 H            4.3759    -0.7548     7.6300 H            1    LIG   0.0000
  41 H            3.9773     0.5985     6.8075 H            1    LIG   0.0000
  42 H            5.0682    -1.8108     5.5568 H            1    LIG   0.0000
  43 H            4.6696    -0.4575     4.7344 H            1    LIG   0.0000
  44 H            4.5572    -2.3509     3.2946 H            1    LIG   0.0000
  45 H            3.4713    -3.0476     4.2956 H            1    LIG   0.0000
  46 H            1.7727    -1.7042     3.4472 H            1    LIG   0.0000
  47 H            0.3616    -1.1480     1.5475 H            1    LIG   0.0000
  48 H            1.5338    -1.4010     0.4392 H            1    LIG   0.0000
  49 H            0.6037    -0.0619    -1.0347 H            1    LIG   0.0000
  50 H           -0.7549    -0.3956    -0.1924 H            1    LIG   0.0000
  51 H           -1.6774     1.3129     1.4089 H            1    LIG   0.0000
  52 H           -0.2597     1.3600     2.2178 H            1    LIG   0.0000
  53 H           -0.8944     2.7328     1.6020 H            1    LIG   0.0000
  54 H            1.6634     7.0040    -3.3343 H            1    LIG   0.0000
  55 H            0.9124     9.0501    -4.6022 H            1    LIG   0.0000
  56 H           -0.6773     9.3678    -4.4061 H            1    LIG   0.0000
  57 H            0.4375    10.2614    -3.6154 H            1    LIG   0.0000
  58 H           -1.8282    10.1994    -2.0329 H            1    LIG   0.0000
  59 H           -3.0876    10.0022    -0.0156 H            1    LIG   0.0000
  60 H           -2.6526     8.1600     1.4685 H            1    LIG   0.0000
  61 H           -0.9719     6.5673     0.8903 H            1    LIG   0.0000
  62 H           -1.3661     4.8980    -0.7675 H            1    LIG   0.0000
  63 H           -1.1429     3.3794    -0.2103 H            1    LIG   0.0000
  64 H           -3.1173     3.2892    -2.0583 H            1    LIG   0.0000
  65 H           -1.7044     2.5912    -4.5268 H            1    LIG   0.0000
  66 H           -3.3401     0.8934    -4.8619 H            1    LIG   0.0000
  67 H           -2.5607     0.6487    -3.4479 H            1    LIG   0.0000
  68 H           -4.0560     1.3050    -3.4531 H            1    LIG   0.0000
  69 H           -3.6793     3.2018    -5.7088 H            1    LIG   0.0000
  70 H           -4.3952     3.6134    -4.3000 H            1    LIG   0.0000
  71 H           -3.1231     4.4758    -4.8520 H            1    LIG   0.0000
  72 H            3.0740     1.8907     1.1520 H            1    LIG   0.0000
  73 H            2.8569     0.8609    -0.0966 H            1    LIG   0.0000
@<TRIPOS>BOND
   1        1        2 1
   2        2        3 1
   3        3        4 1
   4        4        5 1
   5        5        6 am
   6        6        7 2
   7        6        8 1
   8        8        9 1
   9        9       10 1
  10       10       11 1
  11       11       12 1
  12       11       13 1
  13       13       14 1
  14       14       15 2
  15       15       16 1
  16       16       17 2
  17       17       18 1
  18       18       19 2
  19       19       20 1
  20       20       21 1
  21       20       22 1
  22       22       23 ar
  23       23       24 ar
  24       24       25 ar
  25       25       26 ar
  26       26       27 ar
  27       27       18 1
  28       27       22 ar
  29       17       28 1
  30       28       14 1
  31       28       29 1
  32       29       30 1
  33       30       31 2
  34       30       32 am
  35       32       33 1
  36       33       34 1
  37       33       35 1
  38       13       36 1
  39       36        8 1
  40        8       37 1
  41       11       38 1
  42        1       39 1
  43        1       40 1
  44        1       41 1
  45        3       42 1
  46        3       43 1
  47        4       44 1
  48        4       45 1
  49        5       46 1
  50        9       47 1
  51        9       48 1
  52       10       49 1
  53       10       50 1
  54       12       51 1
  55       12       52 1
  56       12       53 1
  57       19       54 1
  58       21       55 1
  59       21       56 1
  60       21       57 1
  61       23       58 1
  62       24       59 1
  63       25       60 1
  64       26       61 1
  65       29       62 1
  66       29       63 1
  67       32       64 1
  68       33       65 1
  69       34       66 1
  70       34       67 1
  71       34       68 1
  72       35       69 1
  73       35       70 1
  74       35       71 1
  75       36       72 1
  76       36       73 1

@<TRIPOS>MOLECULE

  73   76
SMALL
USER_CHARGES
@<TRIPOS>ATOM
   1 C1           7.6692     0.3409     1.4008 C.3          1    LIG   0.0000
   2 O2           6.6049     0.4756     2.3311 O.3          1    LIG   0.0000
   3 C3           6.1193    -0.7596     2.8360 C.3          1    LIG   0.0000
   4 C4           4.9884    -0.4964     3.8170 C.3          1    LIG   0.0000
   5 N5           3.8999     0.2142     3.1308 N.am         1    LIG   0.0000
   6 C6           3.0145    -0.4799     2.3490 C.2          1    LIG   0.0000
   7 O7           3.1275    -1.6681     2.2245 O.2          1    LIG   0.0000
   8 C8           1.8885     0.2552     1.6392 C.3          1    LIG   0.0000
   9 C9           0.9762    -0.7065     0.8938 C.3          1    LIG   0.0000
  10 C10          0.1495     0.0288    -0.1484 C.3          1    LIG   0.0000
  11 C11         -0.0276     1.5128     0.1539 C.3          1    LIG   0.0000
  12 C12         -0.7794     1.7500     1.4577 C.3          1    LIG   0.0000
  13 N13          1.3024     2.1417     0.1852 N.pl3        1    LIG   0.0000
  14 C14          1.5199     3.4604    -0.2291 C.2          1    LIG   0.0000
  15 N15          2.6659     4.0988    -0.2354 N.2          1    LIG   0.0000
  16 N16          2.4743     5.3271    -0.6825 N.2          1    LIG   0.0000
  17 C17          1.2154     5.5003    -0.9895 C.2          1    LIG   0.0000
  18 C18          0.6131     6.7092    -1.5198 C.2          1    LIG   0.0000
  19 C19          0.9601     7.3101    -2.6925 C.2          1    LIG   0.0000
  20 N20          0.1649     8.4074    -2.8220 N.pl3        1    LIG   0.0000
  21 C21          0.2132     9.3467    -3.9518 C.3          1    LIG   0.0000
  22 C22         -0.6725     8.5020    -1.7482 C.ar         1    LIG   0.0000
  23 C23         -1.6509     9.4339    -1.4143 C.ar         1    LIG   0.0000
  24 C24         -2.3874     9.3245    -0.2400 C.ar         1    LIG   0.0000
  25 C25         -2.1362     8.2593     0.6179 C.ar         1    LIG   0.0000
  26 C26         -1.1555     7.3338     0.2748 C.ar         1    LIG   0.0000
  27 C27         -0.4231     7.4481    -0.9044 C.ar         1    LIG   0.0000
  28 N28          0.5858     4.3302    -0.7040 N.pl3        1    LIG   0.0000
  29 C29         -0.8450     4.0530    -0.8867 C.3          1    LIG   0.0000
  30 C30         -1.0805     3.5054    -2.2849 C.2          1    LIG   0.0000
  31 O31         -1.0314     2.3227    -2.4823 O.2          1    LIG   0.0000
  32 N32         -1.3488     4.3620    -3.3199 N.am         1    LIG   0.0000
  33 C33         -1.5765     3.8324    -4.6721 C.3          1    LIG   0.0000
  34 C34         -2.9672     4.2259    -5.1427 C.3          1    LIG   0.0000
  35 C35         -0.5386     4.4067    -5.6226 C.3          1    LIG   0.0000
  36 C36          2.4117     1.3107     0.6777 C.3          1    LIG   0.0000
  37 H            1.3403     0.7199     2.3346 H            1    LIG   0.0000
  38 H           -0.5525     1.9248    -0.5909 H            1    LIG   0.0000
  39 H            7.9573     1.2468     1.0904 H            1    LIG   0.0000
  40 H            8.4394    -0.1215     1.8401 H            1    LIG   0.0000
  41 H            7.3604    -0.1975     0.6167 H            1    LIG   0.0000
  42 H            6.8598    -1.2430     3.3029 H            1    LIG   0.0000
  43 H            5.7809    -1.3190     2.0794 H            1    LIG   0.0000
  44 H            4.6465    -1.3663     4.1726 H            1    LIG   0.0000
  45 H            5.3269     0.0630     4.5736 H            1    LIG   0.0000
  46 H            3.8057     1.2044     3.2345 H            1    LIG   0.0000
  47 H            0.3616    -1.1480     1.5475 H            1    LIG   0.0000
  48 H            1.5338    -1.4010     0.4392 H            1    LIG   0.0000
  49 H            0.6037    -0.0619    -1.0347 H            1    LIG   0.0000
  50 H           -0.7549    -0.3956    -0.1924 H            1    LIG   0.0000
  51 H           -1.6774     1.3129     1.4089 H            1    LIG   0.0000
  52 H           -0.2597     1.3600     2.2178 H            1    LIG   0.0000
  53 H           -0.8944     2.7328     1.6020 H            1    LIG   0.0000
  54 H            1.6634     7.0040    -3.3343 H            1    LIG   0.0000
  55 H            0.9124     9.0501    -4.6022 H            1    LIG   0.0000
  56 H           -0.6773     9.3678    -4.4061 H            1    LIG   0.0000
  57 H            0.4375    10.2614    -3.6154 H            1    LIG   0.0000
  58 H           -1.8282    10.1994    -2.0329 H            1    LIG   0.0000
  59 H           -3.0876    10.0022    -0.0156 H            1    LIG   0.0000
  60 H           -2.6526     8.1600     1.4685 H            1    LIG   0.0000
  61 H           -0.9719     6.5673     0.8903 H            1    LIG   0.0000
  62 H           -1.3661     4.8980    -0.7675 H            1    LIG   0.0000
  63 H           -1.1429     3.3794    -0.2103 H            1    LIG   0.0000
  64 H           -1.3897     5.3475    -3.1554 H            1    LIG   0.0000
  65 H           -1.4993     2.8355    -4.6571 H            1    LIG   0.0000
  66 H           -3.1222     3.8656    -6.0626 H            1    LIG   0.0000
  67 H           -3.6500     3.8480    -4.5174 H            1    LIG   0.0000
  68 H           -3.0445     5.2228    -5.1578 H            1    LIG   0.0000
  69 H           -0.6936     4.0465    -6.5425 H            1    LIG   0.0000
  70 H           -0.6159     5.4036    -5.6376 H            1    LIG   0.0000
  71 H            0.3763     4.1479    -5.3130 H            1    LIG   0.0000
  72 H            3.0740     1.8907     1.1520 H            1    LIG   0.0000
  73 H            2.8569     0.8609    -0.0966 H            1    LIG   0.0000
@<TRIPOS>BOND
   1        1        2 1
   2        2        3 1
   3        3        4 1
   4        4        5 1
   5        5        6 am
   6        6        7 2
   7        6        8 1
   8        8        9 1
   9        9       10 1
  10       10       11 1
  11       11       12 1
  12       11       13 1
  13       13       14 1
  14       14       15 2
  15       15       16 1
  16       16       17 2
  17       17       18 1
  18       18       19 2
  19       19       20 1
  20       20       21 1
  21       20       22 1
  22       22       23 ar
  23       23       24 ar
  24       24       25 ar
  25       25       26 ar
  26       26       27 ar
  27       27       18 1
  28       27       22 ar
  29       17       28 1
  30       28       14 1
  31       28       29 1
  32       29       30 1
  33       30       31 2
  34       30       32 am
  35       32       33 1
  36       33       34 1
  37       33       35 1
  38       13       36 1
  39       36        8 1
  40        8       37 1
  41       11       38 1
  42        1       39 1
  43        1       40 1
  44        1       41 1
  45        3       42 1
  46        3       43 1
  47        4       44 1
  48        4       45 1
  49        5       46 1
  50        9       47 1
  51        9       48 1
  52       10       49 1
  53       10       50 1
  54       12       51 1
  55       12       52 1
  56       12       53 1
  57       19       54 1
  58       21       55 1
  59       21       56 1
  60       21       57 1
  61       23       58 1
  62       24       59 1
  63       25       60 1
  64       26       61 1
  65       29       62 1
  66       29       63 1
  67       32       64 1
  68       33       65 1
  69       34       66 1
  70       34       67 1
  71       34       68 1
  72       35       69 1
  73       35       70 1
  74       35       71 1
  75       36       72 1
  76       36       73 1

@<TRIPOS>MOLECULE

  73   76
SMALL
USER_CHARGES
@<TRIPOS>ATOM
   1 C1           3.6484    -0.2911     7.1242 C.3          1    LIG   0.0000
   2 O2           3.2712    -1.0815     6.0064 O.3          1    LIG   0.0000
   3 C3           4.3277    -1.3273     5.0900 C.3          1    LIG   0.0000
   4 C4           3.8132    -2.1778     3.9400 C.3          1    LIG   0.0000
   5 N5           2.7247    -1.4671     3.2537 N.am         1    LIG   0.0000
   6 C6           3.0145    -0.4799     2.3490 C.2          1    LIG   0.0000
   7 O7           4.1569    -0.1954     2.1168 O.2          1    LIG   0.0000
   8 C8           1.8885     0.2552     1.6392 C.3          1    LIG   0.0000
   9 C9           0.9762    -0.7065     0.8938 C.3          1    LIG   0.0000
  10 C10          0.1495     0.0288    -0.1484 C.3          1    LIG   0.0000
  11 C11         -0.0276     1.5128     0.1539 C.3          1    LIG   0.0000
  12 C12         -0.7794     1.7500     1.4577 C.3          1    LIG   0.0000
  13 N13          1.3024     2.1417     0.1852 N.pl3        1    LIG   0.0000
  14 C14          1.5199     3.4604    -0.2291 C.2          1    LIG   0.0000
  15 N15          2.6659     4.0988    -0.2354 N.2          1    LIG   0.0000
  16 N16          2.4743     5.3271    -0.6825 N.2          1    LIG   0.0000
  17 C17          1.2154     5.5003    -0.9895 C.2          1    LIG   0.0000
  18 C18          0.6131     6.7092    -1.5198 C.2          1    LIG   0.0000
  19 C19          0.6066     7.9214    -0.8976 C.2          1    LIG   0.0000
  20 N20         -0.0540     8.7817    -1.7203 N.pl3        1    LIG   0.0000
  21 C21         -0.2923    10.2024    -1.4273 C.3          1    LIG   0.0000
  22 C22         -0.4611     8.1257    -2.8460 C.ar         1    LIG   0.0000
  23 C23         -1.1681     8.5553    -3.9653 C.ar         1    LIG   0.0000
  24 C24         -1.4789     7.6866    -5.0054 C.ar         1    LIG   0.0000
  25 C25         -1.0736     6.3590    -4.9205 C.ar         1    LIG   0.0000
  26 C26         -0.3678     5.9399    -3.7968 C.ar         1    LIG   0.0000
  27 C27         -0.0578     6.8162    -2.7596 C.ar         1    LIG   0.0000
  28 N28          0.5858     4.3302    -0.7040 N.pl3        1    LIG   0.0000
  29 C29         -0.8450     4.0530    -0.8867 C.3          1    LIG   0.0000
  30 C30         -1.5966     4.4092     0.3856 C.2          1    LIG   0.0000
  31 O31         -1.0012     4.8441     1.3324 O.2          1    LIG   0.0000
  32 N32         -2.9537     4.2339     0.4513 N.am         1    LIG   0.0000
  33 C33         -3.6806     4.5785     1.6817 C.3          1    LIG   0.0000
  34 C34         -4.7158     5.6486     1.3758 C.3          1    LIG   0.0000
  35 C35         -4.3765     3.3402     2.2226 C.3          1    LIG   0.0000
  36 C36          2.4117     1.3107     0.6777 C.3          1    LIG   0.0000
  37 H            1.3403     0.7199     2.3346 H            1    LIG   0.0000
  38 H           -0.5525     1.9248    -0.5909 H            1    LIG   0.0000
  39 H            2.8576    -0.1606     7.7222 H            1    LIG   0.0000
  40 H            4.3759    -0.7548     7.6300 H            1    LIG   0.0000
  41 H            3.9773     0.5985     6.8075 H            1    LIG   0.0000
  42 H            5.0682    -1.8108     5.5568 H            1    LIG   0.0000
  43 H            4.6696    -0.4575     4.7344 H            1    LIG   0.0000
  44 H            4.5572    -2.3509     3.2946 H            1    LIG   0.0000
  45 H            3.4713    -3.0476     4.2956 H            1    LIG   0.0000
  46 H            1.7727    -1.7042     3.4472 H            1    LIG   0.0000
  47 H            0.3616    -1.1480     1.5475 H            1    LIG   0.0000
  48 H            1.5338    -1.4010     0.4392 H            1    LIG   0.0000
  49 H            0.6037    -0.0619    -1.0347 H            1    LIG   0.0000
  50 H           -0.7549    -0.3956    -0.1924 H            1    LIG   0.0000
  51 H           -1.6774     1.3129     1.4089 H            1    LIG   0.0000
  52 H           -0.2597     1.3600     2.2178 H            1    LIG   0.0000
  53 H           -0.8944     2.7328     1.6020 H            1    LIG   0.0000
  54 H            1.0093     8.1374    -0.0081 H            1    LIG   0.0000
  55 H            0.1080    10.4314    -0.5399 H            1    LIG   0.0000
  56 H            0.1297    10.7648    -2.1384 H            1    LIG   0.0000
  57 H           -1.2766    10.3775    -1.4041 H            1    LIG   0.0000
  58 H           -1.4592     9.5103    -4.0227 H            1    LIG   0.0000
  59 H           -1.9867     8.0117    -5.8031 H            1    LIG   0.0000
  60 H           -1.2860     5.7154    -5.6558 H            1    LIG   0.0000
  61 H           -0.0759     4.9856    -3.7324 H            1    LIG   0.0000
  62 H           -0.9732     3.0820    -1.0888 H            1    LIG   0.0000
  63 H           -1.1964     4.6007    -1.6459 H            1    LIG   0.0000
  64 H           -3.4498     3.8715    -0.3377 H            1    LIG   0.0000
  65 H           -3.0361     4.9235     2.3640 H            1    LIG   0.0000
  66 H           -5.2103     5.8830     2.2128 H            1    LIG   0.0000
  67 H           -4.2579     6.4633     1.0199 H            1    LIG   0.0000
  68 H           -5.3603     5.3035     0.6934 H            1    LIG   0.0000
  69 H           -4.8710     3.5746     3.0596 H            1    LIG   0.0000
  70 H           -5.0210     2.9951     1.5403 H            1    LIG   0.0000
  71 H           -3.6955     2.6362     2.4239 H            1    LIG   0.0000
  72 H            3.0740     1.8907     1.1520 H            1    LIG   0.0000
  73 H            2.8569     0.8609    -0.0966 H            1    LIG   0.0000
@<TRIPOS>BOND
   1        1        2 1
   2        2        3 1
   3        3        4 1
   4        4        5 1
   5        5        6 am
   6        6        7 2
   7        6        8 1
   8        8        9 1
   9        9       10 1
  10       10       11 1
  11       11       12 1
  12       11       13 1
  13       13       14 1
  14       14       15 2
  15       15       16 1
  16       16       17 2
  17       17       18 1
  18       18       19 2
  19       19       20 1
  20       20       21 1
  21       20       22 1
  22       22       23 ar
  23       23       24 ar
  24       24       25 ar
  25       25       26 ar
  26       26       27 ar
  27       27       18 1
  28       27       22 ar
  29       17       28 1
  30       28       14 1
  31       28       29 1
  32       29       30 1
  33       30       31 2
  34       30       32 am
  35       32       33 1
  36       33       34 1
  37       33       35 1
  38       13       36 1
  39       36        8 1
  40        8       37 1
  41       11       38 1
  42        1       39 1
  43        1       40 1
  44        1       41 1
  45        3       42 1
  46        3       43 1
  47        4       44 1
  48        4       45 1
  49        5       46 1
  50        9       47 1
  51        9       48 1
  52       10       49 1
  53       10       50 1
  54       12       51 1
  55       12       52 1
  56       12       53 1
  57       19       54 1
  58       21       55 1
  59       21       56 1
  60       21       57 1
  61       23       58 1
  62       24       59 1
  63       25       60 1
  64       26       61 1
  65       29       62 1
  66       29       63 1
  67       32       64 1
  68       33       65 1
  69       34       66 1
  70       34       67 1
  71       34       68 1
  72       35       69 1
  73       35       70 1
  74       35       71 1
  75       36       72 1
  76       36       73 1

@<TRIPOS>MOLECULE

  73   76
SMALL
USER_CHARGES
@<TRIPOS>ATOM
   1 C1           7.6595     1.0384     3.0975 C.3          1    LIG   0.0000
   2 O2           6.6049     0.4756     2.3311 O.3          1    LIG   0.0000
   3 C3           6.1193    -0.7596     2.8360 C.3          1    LIG   0.0000
   4 C4           4.9884    -0.4964     3.8170 C.3          1    LIG   0.0000
   5 N5           3.8999     0.2142     3.1308 N.am         1    LIG   0.0000
   6 C6           3.0145    -0.4799     2.3490 C.2          1    LIG   0.0000
   7 O7           3.1275    -1.6681     2.2245 O.2          1    LIG   0.0000
   8 C8           1.8885     0.2552     1.6392 C.3          1    LIG   0.0000
   9 C9           0.9762    -0.7065     0.8938 C.3          1    LIG   0.0000
  10 C10          0.1495     0.0288    -0.1484 C.3          1    LIG   0.0000
  11 C11         -0.0276     1.5128     0.1539 C.3          1    LIG   0.0000
  12 C12         -0.7794     1.7500     1.4577 C.3          1    LIG   0.0000
  13 N13          1.3024     2.1417     0.1852 N.pl3        1    LIG   0.0000
  14 C14          1.5199     3.4604    -0.2291 C.2          1    LIG   0.0000
  15 N15          2.6659     4.0988    -0.2354 N.2          1    LIG   0.0000
  16 N16          2.4743     5.3271    -0.6825 N.2          1    LIG   0.0000
  17 C17          1.2154     5.5003    -0.9895 C.2          1    LIG   0.0000
  18 C18          0.6131     6.7092    -1.5198 C.2          1    LIG   0.0000
  19 C19          0.6066     7.9214    -0.8976 C.2          1    LIG   0.0000
  20 N20         -0.0540     8.7817    -1.7203 N.pl3        1    LIG   0.0000
  21 C21         -0.2923    10.2024    -1.4273 C.3          1    LIG   0.0000
  22 C22         -0.4611     8.1257    -2.8460 C.ar         1    LIG   0.0000
  23 C23         -1.1681     8.5553    -3.9653 C.ar         1    LIG   0.0000
  24 C24         -1.4789     7.6866    -5.0054 C.ar         1    LIG   0.0000
  25 C25         -1.0736     6.3590    -4.9205 C.ar         1    LIG   0.0000
  26 C26         -0.3678     5.9399    -3.7968 C.ar         1    LIG   0.0000
  27 C27         -0.0578     6.8162    -2.7596 C.ar         1    LIG   0.0000
  28 N28          0.5858     4.3302    -0.7040 N.pl3        1    LIG   0.0000
  29 C29         -0.8450     4.0530    -0.8867 C.3          1    LIG   0.0000
  30 C30         -1.5966     4.4092     0.3856 C.2          1    LIG   0.0000
  31 O31         -2.7853     4.2557     0.4431 O.2          1    LIG   0.0000
  32 N32         -0.9168     4.9057     1.4665 N.am         1    LIG   0.0000
  33 C33         -1.6437     5.2503     2.6969 C.3          1    LIG   0.0000
  34 C34         -1.1096     4.4177     3.8509 C.3          1    LIG   0.0000
  35 C35         -1.4488     6.7261     3.0041 C.3          1    LIG   0.0000
  36 C36          2.4117     1.3107     0.6777 C.3          1    LIG   0.0000
  37 H            1.3403     0.7199     2.3346 H            1    LIG   0.0000
  38 H           -0.5525     1.9248    -0.5909 H            1    LIG   0.0000
  39 H            7.9482     1.9018     2.6839 H            1    LIG   0.0000
  40 H            7.3408     1.2059     4.0305 H            1    LIG   0.0000
  41 H            8.4321     0.4038     3.1180 H            1    LIG   0.0000
  42 H            6.8598    -1.2430     3.3029 H            1    LIG   0.0000
  43 H            5.7809    -1.3190     2.0794 H            1    LIG   0.0000
  44 H            4.6465    -1.3663     4.1726 H            1    LIG   0.0000
  45 H            5.3269     0.0630     4.5736 H            1    LIG   0.0000
  46 H            3.8057     1.2044     3.2345 H            1    LIG   0.0000
  47 H            0.3616    -1.1480     1.5475 H            1    LIG   0.0000
  48 H            1.5338    -1.4010     0.4392 H            1    LIG   0.0000
  49 H            0.6037    -0.0619    -1.0347 H            1    LIG   0.0000
  50 H           -0.7549    -0.3956    -0.1924 H            1    LIG   0.0000
  51 H           -1.6774     1.3129     1.4089 H            1    LIG   0.0000
  52 H           -0.2597     1.3600     2.2178 H            1    LIG   0.0000
  53 H           -0.8944     2.7328     1.6020 H            1    LIG   0.0000
  54 H            1.0093     8.1374    -0.0081 H            1    LIG   0.0000
  55 H            0.1080    10.4314    -0.5399 H            1    LIG   0.0000
  56 H            0.1297    10.7648    -2.1384 H            1    LIG   0.0000
  57 H           -1.2766    10.3775    -1.4041 H            1    LIG   0.0000
  58 H           -1.4592     9.5103    -4.0227 H            1    LIG   0.0000
  59 H           -1.9867     8.0117    -5.8031 H            1    LIG   0.0000
  60 H           -1.2860     5.7154    -5.6558 H            1    LIG   0.0000
  61 H           -0.0759     4.9856    -3.7324 H            1    LIG   0.0000
  62 H           -0.9732     3.0820    -1.0888 H            1    LIG   0.0000
  63 H           -1.1964     4.6007    -1.6459 H            1    LIG   0.0000
  64 H            0.0738     5.0337     1.4185 H            1    LIG   0.0000
  65 H           -2.6178     5.0615     2.5725 H            1    LIG   0.0000
  66 H           -1.6040     4.6521     4.6879 H            1    LIG   0.0000
  67 H           -1.2378     3.4467     3.6488 H            1    LIG   0.0000
  68 H           -0.1354     4.6065     3.9753 H            1    LIG   0.0000
  69 H           -1.9433     6.9605     3.8410 H            1    LIG   0.0000
  70 H           -0.4747     6.9149     3.1284 H            1    LIG   0.0000
  71 H           -1.8002     7.2738     2.2448 H            1    LIG   0.0000
  72 H            3.0740     1.8907     1.1520 H            1    LIG   0.0000
  73 H            2.8569     0.8609    -0.0966 H            1    LIG   0.0000
@<TRIPOS>BOND
   1        1        2 1
   2        2        3 1
   3        3        4 1
   4        4        5 1
   5        5        6 am
   6        6        7 2
   7        6        8 1
   8        8        9 1
   9        9       10 1
  10       10       11 1
  11       11       12 1
  12       11       13 1
  13       13       14 1
  14       14       15 2
  15       15       16 1
  16       16       17 2
  17       17       18 1
  18       18       19 2
  19       19       20 1
  20       20       21 1
  21       20       22 1
  22       22       23 ar
  23       23       24 ar
  24       24       25 ar
  25       25       26 ar
  26       26       27 ar
  27       27       18 1
  28       27       22 ar
  29       17       28 1
  30       28       14 1
  31       28       29 1
  32       29       30 1
  33       30       31 2
  34       30       32 am
  35       32       33 1
  36       33       34 1
  37       33       35 1
  38       13       36 1
  39       36        8 1
  40        8       37 1
  41       11       38 1
  42        1       39 1
  43        1       40 1
  44        1       41 1
  45        3       42 1
  46        3       43 1
  47        4       44 1
  48        4       45 1
  49        5       46 1
  50        9       47 1
  51        9       48 1
  52       10       49 1
  53       10       50 1
  54       12       51 1
  55       12       52 1
  56       12       53 1
  57       19       54 1
  58       21       55 1
  59       21       56 1
  60       21       57 1
  61       23       58 1
  62       24       59 1
  63       25       60 1
  64       26       61 1
  65       29       62 1
  66       29       63 1
  67       32       64 1
  68       33       65 1
  69       34       66 1
  70       34       67 1
  71       34       68 1
  72       35       69 1
  73       35       70 1
  74       35       71 1
  75       36       72 1
  76       36       73 1

@<TRIPOS>MOLECULE

  73   76
SMALL
USER_CHARGES
@<TRIPOS>ATOM
   1 C1          -1.3746    -3.7492     5.7582 C.3          1    LIG   0.0000
   2 O2          -0.4267    -2.7290     5.4806 O.3          1    LIG   0.0000
   3 C3          -0.9679    -1.4163     5.5022 C.3          1    LIG   0.0000
   4 C4           0.1293    -0.4107     5.1935 C.3          1    LIG   0.0000
   5 N5           0.6883    -0.6885     3.8626 N.am         1    LIG   0.0000
   6 C6           0.0288    -0.2619     2.7401 C.2          1    LIG   0.0000
   7 O7          -1.0051     0.3384     2.8433 O.2          1    LIG   0.0000
   8 C8           0.6068    -0.5491     1.3638 C.3          1    LIG   0.0000
   9 C9           2.0456    -0.0661     1.2530 C.3          1    LIG   0.0000
  10 C10          2.1408     1.4512     1.1844 C.3          1    LIG   0.0000
  11 C11          1.3490     1.9956     0.0060 C.3          1    LIG   0.0000
  12 C12          2.0240     1.6530    -1.3138 C.3          1    LIG   0.0000
  13 N13         -0.0067     1.4256    -0.0515 N.pl3        1    LIG   0.0000
  14 C14         -1.0595     2.2694    -0.4222 C.2          1    LIG   0.0000
  15 N15         -2.3250     1.9403    -0.5273 N.2          1    LIG   0.0000
  16 N16         -3.0168     2.9986    -0.9106 N.2          1    LIG   0.0000
  17 C17         -2.2227     4.0288    -1.0416 C.2          1    LIG   0.0000
  18 C18         -2.6058     5.3710    -1.4380 C.2          1    LIG   0.0000
  19 C19         -3.4906     6.1642    -0.7712 C.2          1    LIG   0.0000
  20 N20         -3.5709     7.3327    -1.4652 N.pl3        1    LIG   0.0000
  21 C21         -4.4214     8.4715    -1.0899 C.3          1    LIG   0.0000
  22 C22         -2.7510     7.2814    -2.5554 C.ar         1    LIG   0.0000
  23 C23         -2.4898     8.2046    -3.5636 C.ar         1    LIG   0.0000
  24 C24         -1.6025     7.9210    -4.5958 C.ar         1    LIG   0.0000
  25 C25         -0.9651     6.6852    -4.6181 C.ar         1    LIG   0.0000
  26 C26         -1.2339     5.7694    -3.6055 C.ar         1    LIG   0.0000
  27 C27         -2.1223     6.0611    -2.5732 C.ar         1    LIG   0.0000
  28 N28         -0.9715     3.5899    -0.7433 N.pl3        1    LIG   0.0000
  29 C29          0.2533     4.4004    -0.7554 C.3          1    LIG   0.0000
  30 C30          0.4589     5.0284     0.6134 C.2          1    LIG   0.0000
  31 O31         -0.3295     4.8198     1.4937 O.2          1    LIG   0.0000
  32 N32          1.5442     5.8325     0.8422 N.am         1    LIG   0.0000
  33 C33          1.7430     6.4398     2.1660 C.3          1    LIG   0.0000
  34 C34          3.0697     5.9738     2.7432 C.3          1    LIG   0.0000
  35 C35          1.7524     7.9539     2.0326 C.3          1    LIG   0.0000
  36 C36         -0.2894     0.0148     0.2672 C.3          1    LIG   0.0000
  37 H            0.6202    -1.5427     1.2514 H            1    LIG   0.0000
  38 H            1.2816     2.9898     0.0896 H            1    LIG   0.0000
  39 H           -0.9236    -4.6411     5.7256 H            1    LIG   0.0000
  40 H           -1.7627    -3.6049     6.6685 H            1    LIG   0.0000
  41 H           -2.1052    -3.7199     5.0760 H            1    LIG   0.0000
  42 H           -1.3482    -1.2274     6.4076 H            1    LIG   0.0000
  43 H           -1.6907    -1.3424     4.8151 H            1    LIG   0.0000
  44 H           -0.2518     0.5137     5.2087 H            1    LIG   0.0000
  45 H            0.8521    -0.4846     5.8807 H            1    LIG   0.0000
  46 H            1.5498    -1.1888     3.7766 H            1    LIG   0.0000
  47 H            2.4516    -0.4517     0.4244 H            1    LIG   0.0000
  48 H            2.5544    -0.3846     2.0528 H            1    LIG   0.0000
  49 H            1.7763     1.8400     2.0306 H            1    LIG   0.0000
  50 H            3.1002     1.7142     1.0829 H            1    LIG   0.0000
  51 H            2.9531     2.0230    -1.3190 H            1    LIG   0.0000
  52 H            2.0603     0.6595    -1.4217 H            1    LIG   0.0000
  53 H            1.5024     2.0514    -2.0683 H            1    LIG   0.0000
  54 H           -3.9856     5.9327     0.0663 H            1    LIG   0.0000
  55 H           -4.9208     8.2526    -0.2517 H            1    LIG   0.0000
  56 H           -3.8502     9.2779    -0.9367 H            1    LIG   0.0000
  57 H           -5.0717     8.6587    -1.8262 H            1    LIG   0.0000
  58 H           -2.9507     9.0919    -3.5453 H            1    LIG   0.0000
  59 H           -1.4251     8.5960    -5.3119 H            1    LIG   0.0000
  60 H           -0.3233     6.4582    -5.3506 H            1    LIG   0.0000
  61 H           -0.7779     4.8795    -3.6194 H            1    LIG   0.0000
  62 H            0.1693     5.1211    -1.4436 H            1    LIG   0.0000
  63 H            1.0360     3.8184    -0.9761 H            1    LIG   0.0000
  64 H            2.2012     6.0063     0.1086 H            1    LIG   0.0000
  65 H            0.9993     6.1634     2.7746 H            1    LIG   0.0000
  66 H            3.2050     6.3870     3.6437 H            1    LIG   0.0000
  67 H            3.0636     4.9777     2.8309 H            1    LIG   0.0000
  68 H            3.8135     6.2502     2.1345 H            1    LIG   0.0000
  69 H            1.8876     8.3671     2.9332 H            1    LIG   0.0000
  70 H            2.4962     8.2304     1.4240 H            1    LIG   0.0000
  71 H            0.8796     8.2605     1.6529 H            1    LIG   0.0000
  72 H           -0.1579    -0.5298    -0.5611 H            1    LIG   0.0000
  73 H           -1.2408    -0.0581     0.5665 H            1    LIG   0.0000
@<TRIPOS>BOND
   1        1        2 1
   2        2        3 1
   3        3        4 1
   4        4        5 1
   5        5        6 am
   6        6        7 2
   7        6        8 1
   8        8        9 1
   9        9       10 1
  10       10       11 1
  11       11       12 1
  12       11       13 1
  13       13       14 1
  14       14       15 2
  15       15       16 1
  16       16       17 2
  17       17       18 1
  18       18       19 2
  19       19       20 1
  20       20       21 1
  21       20       22 1
  22       22       23 ar
  23       23       24 ar
  24       24       25 ar
  25       25       26 ar
  26       26       27 ar
  27       27       18 1
  28       27       22 ar
  29       17       28 1
  30       28       14 1
  31       28       29 1
  32       29       30 1
  33       30       31 2
  34       30       32 am
  35       32       33 1
  36       33       34 1
  37       33       35 1
  38       13       36 1
  39       36        8 1
  40        8       37 1
  41       11       38 1
  42        1       39 1
  43        1       40 1
  44        1       41 1
  45        3       42 1
  46        3       43 1
  47        4       44 1
  48        4       45 1
  49        5       46 1
  50        9       47 1
  51        9       48 1
  52       10       49 1
  53       10       50 1
  54       12       51 1
  55       12       52 1
  56       12       53 1
  57       19       54 1
  58       21       55 1
  59       21       56 1
  60       21       57 1
  61       23       58 1
  62       24       59 1
  63       25       60 1
  64       26       61 1
  65       29       62 1
  66       29       63 1
  67       32       64 1
  68       33       65 1
  69       34       66 1
  70       34       67 1
  71       34       68 1
  72       35       69 1
  73       35       70 1
  74       35       71 1
  75       36       72 1
  76       36       73 1

@<TRIPOS>MOLECULE

  73   76
SMALL
USER_CHARGES
@<TRIPOS>ATOM
   1 C1           0.1387     3.2844     4.9260 C.3          1    LIG   0.0000
   2 O2          -0.1092     1.9147     4.6449 O.3          1    LIG   0.0000
   3 C3           0.4554     1.0195     5.5916 C.3          1    LIG   0.0000
   4 C4           0.1293    -0.4107     5.1935 C.3          1    LIG   0.0000
   5 N5           0.6883    -0.6885     3.8626 N.am         1    LIG   0.0000
   6 C6           0.0288    -0.2619     2.7401 C.2          1    LIG   0.0000
   7 O7          -1.0051     0.3384     2.8433 O.2          1    LIG   0.0000
   8 C8           0.6068    -0.5491     1.3638 C.3          1    LIG   0.0000
   9 C9           2.0456    -0.0661     1.2530 C.3          1    LIG   0.0000
  10 C10          2.1408     1.4512     1.1844 C.3          1    LIG   0.0000
  11 C11          1.3490     1.9956     0.0060 C.3          1    LIG   0.0000
  12 C12          2.0240     1.6530    -1.3138 C.3          1    LIG   0.0000
  13 N13         -0.0067     1.4256    -0.0515 N.pl3        1    LIG   0.0000
  14 C14         -1.0595     2.2694    -0.4222 C.2          1    LIG   0.0000
  15 N15         -2.3250     1.9403    -0.5273 N.2          1    LIG   0.0000
  16 N16         -3.0168     2.9986    -0.9106 N.2          1    LIG   0.0000
  17 C17         -2.2227     4.0288    -1.0416 C.2          1    LIG   0.0000
  18 C18         -2.6058     5.3710    -1.4380 C.2          1    LIG   0.0000
  19 C19         -3.4906     6.1642    -0.7712 C.2          1    LIG   0.0000
  20 N20         -3.5709     7.3327    -1.4652 N.pl3        1    LIG   0.0000
  21 C21         -4.4214     8.4715    -1.0899 C.3          1    LIG   0.0000
  22 C22         -2.7510     7.2814    -2.5554 C.ar         1    LIG   0.0000
  23 C23         -2.4898     8.2046    -3.5636 C.ar         1    LIG   0.0000
  24 C24         -1.6025     7.9210    -4.5958 C.ar         1    LIG   0.0000
  25 C25         -0.9651     6.6852    -4.6181 C.ar         1    LIG   0.0000
  26 C26         -1.2339     5.7694    -3.6055 C.ar         1    LIG   0.0000
  27 C27         -2.1223     6.0611    -2.5732 C.ar         1    LIG   0.0000
  28 N28         -0.9715     3.5899    -0.7433 N.pl3        1    LIG   0.0000
  29 C29          0.2533     4.4004    -0.7554 C.3          1    LIG   0.0000
  30 C30          0.4589     5.0284     0.6134 C.2          1    LIG   0.0000
  31 O31         -0.3295     4.8198     1.4937 O.2          1    LIG   0.0000
  32 N32          1.5442     5.8325     0.8422 N.am         1    LIG   0.0000
  33 C33          1.7430     6.4398     2.1660 C.3          1    LIG   0.0000
  34 C34          3.0697     5.9738     2.7432 C.3          1    LIG   0.0000
  35 C35          1.7524     7.9539     2.0326 C.3          1    LIG   0.0000
  36 C36         -0.2894     0.0148     0.2672 C.3          1    LIG   0.0000
  37 H            0.6202    -1.5427     1.2514 H            1    LIG   0.0000
  38 H            1.2816     2.9898     0.0896 H            1    LIG   0.0000
  39 H           -0.2867     3.8517     4.2208 H            1    LIG   0.0000
  40 H           -0.2476     3.5167     5.8186 H            1    LIG   0.0000
  41 H            1.1250     3.4494     4.9364 H            1    LIG   0.0000
  42 H            0.0752     1.2084     6.4970 H            1    LIG   0.0000
  43 H            1.4477     1.1411     5.6148 H            1    LIG   0.0000
  44 H            0.5269    -1.0412     5.8602 H            1    LIG   0.0000
  45 H           -0.8630    -0.5323     5.1703 H            1    LIG   0.0000
  46 H            1.5498    -1.1888     3.7766 H            1    LIG   0.0000
  47 H            2.4516    -0.4517     0.4244 H            1    LIG   0.0000
  48 H            2.5544    -0.3846     2.0528 H            1    LIG   0.0000
  49 H            1.7763     1.8400     2.0306 H            1    LIG   0.0000
  50 H            3.1002     1.7142     1.0829 H            1    LIG   0.0000
  51 H            2.9531     2.0230    -1.3190 H            1    LIG   0.0000
  52 H            2.0603     0.6595    -1.4217 H            1    LIG   0.0000
  53 H            1.5024     2.0514    -2.0683 H            1    LIG   0.0000
  54 H           -3.9856     5.9327     0.0663 H            1    LIG   0.0000
  55 H           -4.9208     8.2526    -0.2517 H            1    LIG   0.0000
  56 H           -3.8502     9.2779    -0.9367 H            1    LIG   0.0000
  57 H           -5.0717     8.6587    -1.8262 H            1    LIG   0.0000
  58 H           -2.9507     9.0919    -3.5453 H            1    LIG   0.0000
  59 H           -1.4251     8.5960    -5.3119 H            1    LIG   0.0000
  60 H           -0.3233     6.4582    -5.3506 H            1    LIG   0.0000
  61 H           -0.7779     4.8795    -3.6194 H            1    LIG   0.0000
  62 H            0.1693     5.1211    -1.4436 H            1    LIG   0.0000
  63 H            1.0360     3.8184    -0.9761 H            1    LIG   0.0000
  64 H            2.2012     6.0063     0.1086 H            1    LIG   0.0000
  65 H            0.9993     6.1634     2.7746 H            1    LIG   0.0000
  66 H            3.2050     6.3870     3.6437 H            1    LIG   0.0000
  67 H            3.0636     4.9777     2.8309 H            1    LIG   0.0000
  68 H            3.8135     6.2502     2.1345 H            1    LIG   0.0000
  69 H            1.8876     8.3671     2.9332 H            1    LIG   0.0000
  70 H            2.4962     8.2304     1.4240 H            1    LIG   0.0000
  71 H            0.8796     8.2605     1.6529 H            1    LIG   0.0000
  72 H           -0.1579    -0.5298    -0.5611 H            1    LIG   0.0000
  73 H           -1.2408    -0.0581     0.5665 H            1    LIG   0.0000
@<TRIPOS>BOND
   1        1        2 1
   2        2        3 1
   3        3        4 1
   4        4        5 1
   5        5        6 am
   6        6        7 2
   7        6        8 1
   8        8        9 1
   9        9       10 1
  10       10       11 1
  11       11       12 1
  12       11       13 1
  13       13       14 1
  14       14       15 2
  15       15       16 1
  16       16       17 2
  17       17       18 1
  18       18       19 2
  19       19       20 1
  20       20       21 1
  21       20       22 1
  22       22       23 ar
  23       23       24 ar
  24       24       25 ar
  25       25       26 ar
  26       26       27 ar
  27       27       18 1
  28       27       22 ar
  29       17       28 1
  30       28       14 1
  31       28       29 1
  32       29       30 1
  33       30       31 2
  34       30       32 am
  35       32       33 1
  36       33       34 1
  37       33       35 1
  38       13       36 1
  39       36        8 1
  40        8       37 1
  41       11       38 1
  42        1       39 1
  43        1       40 1
  44        1       41 1
  45        3       42 1
  46        3       43 1
  47        4       44 1
  48        4       45 1
  49        5       46 1
  50        9       47 1
  51        9       48 1
  52       10       49 1
  53       10       50 1
  54       12       51 1
  55       12       52 1
  56       12       53 1
  57       19       54 1
  58       21       55 1
  59       21       56 1
  60       21       57 1
  61       23       58 1
  62       24       59 1
  63       25       60 1
  64       26       61 1
  65       29       62 1
  66       29       63 1
  67       32       64 1
  68       33       65 1
  69       34       66 1
  70       34       67 1
  71       34       68 1
  72       35       69 1
  73       35       70 1
  74       35       71 1
  75       36       72 1
  76       36       73 1

@<TRIPOS>MOLECULE

  73   76
SMALL
USER_CHARGES
@<TRIPOS>ATOM
   1 C1          -3.9362    -0.4902     4.0024 C.3          1    LIG   0.0000
   2 O2          -2.5453    -0.2110     4.0654 O.3          1    LIG   0.0000
   3 C3          -2.2407     1.1251     4.4373 C.3          1    LIG   0.0000
   4 C4          -0.7324     1.3099     4.4726 C.3          1    LIG   0.0000
   5 N5          -0.1735     1.0322     3.1417 N.am         1    LIG   0.0000
   6 C6           0.0288    -0.2619     2.7401 C.2          1    LIG   0.0000
   7 O7          -0.2503    -1.1687     3.4748 O.2          1    LIG   0.0000
   8 C8           0.6068    -0.5491     1.3638 C.3          1    LIG   0.0000
   9 C9           2.0456    -0.0661     1.2530 C.3          1    LIG   0.0000
  10 C10          2.1408     1.4512     1.1844 C.3          1    LIG   0.0000
  11 C11          1.3490     1.9956     0.0060 C.3          1    LIG   0.0000
  12 C12          2.0240     1.6530    -1.3138 C.3          1    LIG   0.0000
  13 N13         -0.0067     1.4256    -0.0515 N.pl3        1    LIG   0.0000
  14 C14         -1.0595     2.2694    -0.4222 C.2          1    LIG   0.0000
  15 N15         -2.3250     1.9403    -0.5273 N.2          1    LIG   0.0000
  16 N16         -3.0168     2.9986    -0.9106 N.2          1    LIG   0.0000
  17 C17         -2.2227     4.0288    -1.0416 C.2          1    LIG   0.0000
  18 C18         -2.6058     5.3710    -1.4380 C.2          1    LIG   0.0000
  19 C19         -3.4906     6.1642    -0.7712 C.2          1    LIG   0.0000
  20 N20         -3.5709     7.3327    -1.4652 N.pl3        1    LIG   0.0000
  21 C21         -4.4214     8.4715    -1.0899 C.3          1    LIG   0.0000
  22 C22         -2.7510     7.2814    -2.5554 C.ar         1    LIG   0.0000
  23 C23         -2.4898     8.2046    -3.5636 C.ar         1    LIG   0.0000
  24 C24         -1.6025     7.9210    -4.5958 C.ar         1    LIG   0.0000
  25 C25         -0.9651     6.6852    -4.6181 C.ar         1    LIG   0.0000
  26 C26         -1.2339     5.7694    -3.6055 C.ar         1    LIG   0.0000
  27 C27         -2.1223     6.0611    -2.5732 C.ar         1    LIG   0.0000
  28 N28         -0.9715     3.5899    -0.7433 N.pl3        1    LIG   0.0000
  29 C29          0.2533     4.4004    -0.7554 C.3          1    LIG   0.0000
  30 C30          0.4589     5.0284     0.6134 C.2          1    LIG   0.0000
  31 O31          1.4096     5.7327     0.8138 O.2          1    LIG   0.0000
  32 N32         -0.4412     4.7903     1.6185 N.am         1    LIG   0.0000
  33 C33         -0.2424     5.3976     2.9423 C.3          1    LIG   0.0000
  34 C34         -1.4320     6.2822     3.2777 C.3          1    LIG   0.0000
  35 C35         -0.1147     4.3021     3.9883 C.3          1    LIG   0.0000
  36 C36         -0.2894     0.0148     0.2672 C.3          1    LIG   0.0000
  37 H            0.6202    -1.5427     1.2514 H            1    LIG   0.0000
  38 H            1.2816     2.9898     0.0896 H            1    LIG   0.0000
  39 H           -4.0729    -1.4443     3.7359 H            1    LIG   0.0000
  40 H           -4.3489    -0.3322     4.8994 H            1    LIG   0.0000
  41 H           -4.3662     0.1093     3.3273 H            1    LIG   0.0000
  42 H           -2.6210     1.3141     5.3427 H            1    LIG   0.0000
  43 H           -2.6383     1.7556     3.7706 H            1    LIG   0.0000
  44 H           -0.5179     2.2509     4.7345 H            1    LIG   0.0000
  45 H           -0.3349     0.6795     5.1393 H            1    LIG   0.0000
  46 H            0.0591     1.7879     2.5294 H            1    LIG   0.0000
  47 H            2.4516    -0.4517     0.4244 H            1    LIG   0.0000
  48 H            2.5544    -0.3846     2.0528 H            1    LIG   0.0000
  49 H            1.7763     1.8400     2.0306 H            1    LIG   0.0000
  50 H            3.1002     1.7142     1.0829 H            1    LIG   0.0000
  51 H            2.9531     2.0230    -1.3190 H            1    LIG   0.0000
  52 H            2.0603     0.6595    -1.4217 H            1    LIG   0.0000
  53 H            1.5024     2.0514    -2.0683 H            1    LIG   0.0000
  54 H           -3.9856     5.9327     0.0663 H            1    LIG   0.0000
  55 H           -4.9208     8.2526    -0.2517 H            1    LIG   0.0000
  56 H           -3.8502     9.2779    -0.9367 H            1    LIG   0.0000
  57 H           -5.0717     8.6587    -1.8262 H            1    LIG   0.0000
  58 H           -2.9507     9.0919    -3.5453 H            1    LIG   0.0000
  59 H           -1.4251     8.5960    -5.3119 H            1    LIG   0.0000
  60 H           -0.3233     6.4582    -5.3506 H            1    LIG   0.0000
  61 H           -0.7779     4.8795    -3.6194 H            1    LIG   0.0000
  62 H            0.1693     5.1211    -1.4436 H            1    LIG   0.0000
  63 H            1.0360     3.8184    -0.9761 H            1    LIG   0.0000
  64 H           -1.2334     4.2033     1.4515 H            1    LIG   0.0000
  65 H            0.5916     5.9494     2.9341 H            1    LIG   0.0000
  66 H           -1.2968     6.6954     4.1783 H            1    LIG   0.0000
  67 H           -1.5160     7.0029     2.5896 H            1    LIG   0.0000
  68 H           -2.2659     5.7304     3.2860 H            1    LIG   0.0000
  69 H            0.0205     4.7153     4.8888 H            1    LIG   0.0000
  70 H           -0.9486     3.7503     3.9965 H            1    LIG   0.0000
  71 H            0.6680     3.7201     3.7676 H            1    LIG   0.0000
  72 H           -0.1579    -0.5298    -0.5611 H            1    LIG   0.0000
  73 H           -1.2408    -0.0581     0.5665 H            1    LIG   0.0000
@<TRIPOS>BOND
   1        1        2 1
   2        2        3 1
   3        3        4 1
   4        4        5 1
   5        5        6 am
   6        6        7 2
   7        6        8 1
   8        8        9 1
   9        9       10 1
  10       10       11 1
  11       11       12 1
  12       11       13 1
  13       13       14 1
  14       14       15 2
  15       15       16 1
  16       16       17 2
  17       17       18 1
  18       18       19 2
  19       19       20 1
  20       20       21 1
  21       20       22 1
  22       22       23 ar
  23       23       24 ar
  24       24       25 ar
  25       25       26 ar
  26       26       27 ar
  27       27       18 1
  28       27       22 ar
  29       17       28 1
  30       28       14 1
  31       28       29 1
  32       29       30 1
  33       30       31 2
  34       30       32 am
  35       32       33 1
  36       33       34 1
  37       33       35 1
  38       13       36 1
  39       36        8 1
  40        8       37 1
  41       11       38 1
  42        1       39 1
  43        1       40 1
  44        1       41 1
  45        3       42 1
  46        3       43 1
  47        4       44 1
  48        4       45 1
  49        5       46 1
  50        9       47 1
  51        9       48 1
  52       10       49 1
  53       10       50 1
  54       12       51 1
  55       12       52 1
  56       12       53 1
  57       19       54 1
  58       21       55 1
  59       21       56 1
  60       21       57 1
  61       23       58 1
  62       24       59 1
  63       25       60 1
  64       26       61 1
  65       29       62 1
  66       29       63 1
  67       32       64 1
  68       33       65 1
  69       34       66 1
  70       34       67 1
  71       34       68 1
  72       35       69 1
  73       35       70 1
  74       35       71 1
  75       36       72 1
  76       36       73 1

@<TRIPOS>MOLECULE

  73   76
SMALL
USER_CHARGES
@<TRIPOS>ATOM
   1 C1          -1.3746    -3.7492     5.7582 C.3          1    LIG   0.0000
   2 O2          -0.4267    -2.7290     5.4806 O.3          1    LIG   0.0000
   3 C3          -0.9679    -1.4163     5.5022 C.3          1    LIG   0.0000
   4 C4           0.1293    -0.4107     5.1935 C.3          1    LIG   0.0000
   5 N5           0.6883    -0.6885     3.8626 N.am         1    LIG   0.0000
   6 C6           0.0288    -0.2619     2.7401 C.2          1    LIG   0.0000
   7 O7          -1.0051     0.3384     2.8433 O.2          1    LIG   0.0000
   8 C8           0.6068    -0.5491     1.3638 C.3          1    LIG   0.0000
   9 C9           2.0456    -0.0661     1.2530 C.3          1    LIG   0.0000
  10 C10          2.1408     1.4512     1.1844 C.3          1    LIG   0.0000
  11 C11          1.3490     1.9956     0.0060 C.3          1    LIG   0.0000
  12 C12          2.0240     1.6530    -1.3138 C.3          1    LIG   0.0000
  13 N13         -0.0067     1.4256    -0.0515 N.pl3        1    LIG   0.0000
  14 C14         -1.0595     2.2694    -0.4222 C.2          1    LIG   0.0000
  15 N15         -2.3250     1.9403    -0.5273 N.2          1    LIG   0.0000
  16 N16         -3.0168     2.9986    -0.9106 N.2          1    LIG   0.0000
  17 C17         -2.2227     4.0288    -1.0416 C.2          1    LIG   0.0000
  18 C18         -2.6058     5.3710    -1.4380 C.2          1    LIG   0.0000
  19 C19         -3.1961     5.7020    -2.6207 C.2          1    LIG   0.0000
  20 N20         -3.3881     7.0496    -2.6002 N.pl3        1    LIG   0.0000
  21 C21         -3.9984     7.8241    -3.6904 C.3          1    LIG   0.0000
  22 C22         -2.9260     7.5656    -1.4240 C.ar         1    LIG   0.0000
  23 C23         -2.8873     8.8678    -0.9341 C.ar         1    LIG   0.0000
  24 C24         -2.3520     9.1578     0.3160 C.ar         1    LIG   0.0000
  25 C25         -1.8436     8.1205     1.0901 C.ar         1    LIG   0.0000
  26 C26         -1.8866     6.8224     0.5905 C.ar         1    LIG   0.0000
  27 C27         -2.4265     6.5388    -0.6617 C.ar         1    LIG   0.0000
  28 N28         -0.9715     3.5899    -0.7433 N.pl3        1    LIG   0.0000
  29 C29          0.2533     4.4004    -0.7554 C.3          1    LIG   0.0000
  30 C30          0.8928     4.3316    -2.1327 C.2          1    LIG   0.0000
  31 O31          0.3806     3.6796    -3.0001 O.2          1    LIG   0.0000
  32 N32          2.0539     5.0140    -2.3836 N.am         1    LIG   0.0000
  33 C33          2.6724     4.9475    -3.7155 C.3          1    LIG   0.0000
  34 C34          2.7541     6.3455    -4.3066 C.3          1    LIG   0.0000
  35 C35          4.0714     4.3654    -3.5961 C.3          1    LIG   0.0000
  36 C36         -0.2894     0.0148     0.2672 C.3          1    LIG   0.0000
  37 H            0.6202    -1.5427     1.2514 H            1    LIG   0.0000
  38 H            1.2816     2.9898     0.0896 H            1    LIG   0.0000
  39 H           -0.9236    -4.6411     5.7256 H            1    LIG   0.0000
  40 H           -1.7627    -3.6049     6.6685 H            1    LIG   0.0000
  41 H           -2.1052    -3.7199     5.0760 H            1    LIG   0.0000
  42 H           -1.3482    -1.2274     6.4076 H            1    LIG   0.0000
  43 H           -1.6907    -1.3424     4.8151 H            1    LIG   0.0000
  44 H           -0.2518     0.5137     5.2087 H            1    LIG   0.0000
  45 H            0.8521    -0.4846     5.8807 H            1    LIG   0.0000
  46 H            1.5498    -1.1888     3.7766 H            1    LIG   0.0000
  47 H            2.4516    -0.4517     0.4244 H            1    LIG   0.0000
  48 H            2.5544    -0.3846     2.0528 H            1    LIG   0.0000
  49 H            1.7763     1.8400     2.0306 H            1    LIG   0.0000
  50 H            3.1002     1.7142     1.0829 H            1    LIG   0.0000
  51 H            2.9531     2.0230    -1.3190 H            1    LIG   0.0000
  52 H            2.0603     0.6595    -1.4217 H            1    LIG   0.0000
  53 H            1.5024     2.0514    -2.0683 H            1    LIG   0.0000
  54 H           -3.4411     5.0758    -3.3608 H            1    LIG   0.0000
  55 H           -4.2497     7.2080    -4.4369 H            1    LIG   0.0000
  56 H           -4.8166     8.2887    -3.3519 H            1    LIG   0.0000
  57 H           -3.3439     8.5026    -4.0243 H            1    LIG   0.0000
  58 H           -3.2527     9.6116    -1.4937 H            1    LIG   0.0000
  59 H           -2.3330    10.0989     0.6535 H            1    LIG   0.0000
  60 H           -1.4529     8.3046     1.9921 H            1    LIG   0.0000
  61 H           -1.5208     6.0745     1.1444 H            1    LIG   0.0000
  62 H            0.8933     4.0476    -0.0728 H            1    LIG   0.0000
  63 H            0.0266     5.3503    -0.5403 H            1    LIG   0.0000
  64 H            2.4808     5.5574    -1.6607 H            1    LIG   0.0000
  65 H            2.1189     4.3655    -4.3113 H            1    LIG   0.0000
  66 H            3.1748     6.3002    -5.2127 H            1    LIG   0.0000
  67 H            1.8337     6.7285    -4.3852 H            1    LIG   0.0000
  68 H            3.3075     6.9275    -3.7108 H            1    LIG   0.0000
  69 H            4.4921     4.3201    -4.5021 H            1    LIG   0.0000
  70 H            4.6248     4.9474    -3.0003 H            1    LIG   0.0000
  71 H            4.0177     3.4457    -3.2072 H            1    LIG   0.0000
  72 H           -0.1579    -0.5298    -0.5611 H            1    LIG   0.0000
  73 H           -1.2408    -0.0581     0.5665 H            1    LIG   0.0000
@<TRIPOS>BOND
   1        1        2 1
   2        2        3 1
   3        3        4 1
   4        4        5 1
   5        5        6 am
   6        6        7 2
   7        6        8 1
   8        8        9 1
   9        9       10 1
  10       10       11 1
  11       11       12 1
  12       11       13 1
  13       13       14 1
  14       14       15 2
  15       15       16 1
  16       16       17 2
  17       17       18 1
  18       18       19 2
  19       19       20 1
  20       20       21 1
  21       20       22 1
  22       22       23 ar
  23       23       24 ar
  24       24       25 ar
  25       25       26 ar
  26       26       27 ar
  27       27       18 1
  28       27       22 ar
  29       17       28 1
  30       28       14 1
  31       28       29 1
  32       29       30 1
  33       30       31 2
  34       30       32 am
  35       32       33 1
  36       33       34 1
  37       33       35 1
  38       13       36 1
  39       36        8 1
  40        8       37 1
  41       11       38 1
  42        1       39 1
  43        1       40 1
  44        1       41 1
  45        3       42 1
  46        3       43 1
  47        4       44 1
  48        4       45 1
  49        5       46 1
  50        9       47 1
  51        9       48 1
  52       10       49 1
  53       10       50 1
  54       12       51 1
  55       12       52 1
  56       12       53 1
  57       19       54 1
  58       21       55 1
  59       21       56 1
  60       21       57 1
  61       23       58 1
  62       24       59 1
  63       25       60 1
  64       26       61 1
  65       29       62 1
  66       29       63 1
  67       32       64 1
  68       33       65 1
  69       34       66 1
  70       34       67 1
  71       34       68 1
  72       35       69 1
  73       35       70 1
  74       35       71 1
  75       36       72 1
  76       36       73 1

@<TRIPOS>MOLECULE

  73   76
SMALL
USER_CHARGES
@<TRIPOS>ATOM
   1 C1           0.1387     3.2844     4.9260 C.3          1    LIG   0.0000
   2 O2          -0.1092     1.9147     4.6449 O.3          1    LIG   0.0000
   3 C3           0.4554     1.0195     5.5916 C.3          1    LIG   0.0000
   4 C4           0.1293    -0.4107     5.1935 C.3          1    LIG   0.0000
   5 N5           0.6883    -0.6885     3.8626 N.am         1    LIG   0.0000
   6 C6           0.0288    -0.2619     2.7401 C.2          1    LIG   0.0000
   7 O7          -1.0051     0.3384     2.8433 O.2          1    LIG   0.0000
   8 C8           0.6068    -0.5491     1.3638 C.3          1    LIG   0.0000
   9 C9           2.0456    -0.0661     1.2530 C.3          1    LIG   0.0000
  10 C10          2.1408     1.4512     1.1844 C.3          1    LIG   0.0000
  11 C11          1.3490     1.9956     0.0060 C.3          1    LIG   0.0000
  12 C12          2.0240     1.6530    -1.3138 C.3          1    LIG   0.0000
  13 N13         -0.0067     1.4256    -0.0515 N.pl3        1    LIG   0.0000
  14 C14         -1.0595     2.2694    -0.4222 C.2          1    LIG   0.0000
  15 N15         -2.3250     1.9403    -0.5273 N.2          1    LIG   0.0000
  16 N16         -3.0168     2.9986    -0.9106 N.2          1    LIG   0.0000
  17 C17         -2.2227     4.0288    -1.0416 C.2          1    LIG   0.0000
  18 C18         -2.6058     5.3710    -1.4380 C.2          1    LIG   0.0000
  19 C19         -3.1961     5.7020    -2.6207 C.2          1    LIG   0.0000
  20 N20         -3.3881     7.0496    -2.6002 N.pl3        1    LIG   0.0000
  21 C21         -3.9984     7.8241    -3.6904 C.3          1    LIG   0.0000
  22 C22         -2.9260     7.5656    -1.4240 C.ar         1    LIG   0.0000
  23 C23         -2.8873     8.8678    -0.9341 C.ar         1    LIG   0.0000
  24 C24         -2.3520     9.1578     0.3160 C.ar         1    LIG   0.0000
  25 C25         -1.8436     8.1205     1.0901 C.ar         1    LIG   0.0000
  26 C26         -1.8866     6.8224     0.5905 C.ar         1    LIG   0.0000
  27 C27         -2.4265     6.5388    -0.6617 C.ar         1    LIG   0.0000
  28 N28         -0.9715     3.5899    -0.7433 N.pl3        1    LIG   0.0000
  29 C29          0.2533     4.4004    -0.7554 C.3          1    LIG   0.0000
  30 C30          0.8928     4.3316    -2.1327 C.2          1    LIG   0.0000
  31 O31          0.3806     3.6796    -3.0001 O.2          1    LIG   0.0000
  32 N32          2.0539     5.0140    -2.3836 N.am         1    LIG   0.0000
  33 C33          2.6724     4.9475    -3.7155 C.3          1    LIG   0.0000
  34 C34          2.7541     6.3455    -4.3066 C.3          1    LIG   0.0000
  35 C35          4.0714     4.3654    -3.5961 C.3          1    LIG   0.0000
  36 C36         -0.2894     0.0148     0.2672 C.3          1    LIG   0.0000
  37 H            0.6202    -1.5427     1.2514 H            1    LIG   0.0000
  38 H            1.2816     2.9898     0.0896 H            1    LIG   0.0000
  39 H           -0.2867     3.8517     4.2208 H            1    LIG   0.0000
  40 H           -0.2476     3.5167     5.8186 H            1    LIG   0.0000
  41 H            1.1250     3.4494     4.9364 H            1    LIG   0.0000
  42 H            0.0752     1.2084     6.4970 H            1    LIG   0.0000
  43 H            1.4477     1.1411     5.6148 H            1    LIG   0.0000
  44 H            0.5269    -1.0412     5.8602 H            1    LIG   0.0000
  45 H           -0.8630    -0.5323     5.1703 H            1    LIG   0.0000
  46 H            1.5498    -1.1888     3.7766 H            1    LIG   0.0000
  47 H            2.4516    -0.4517     0.4244 H            1    LIG   0.0000
  48 H            2.5544    -0.3846     2.0528 H            1    LIG   0.0000
  49 H            1.7763     1.8400     2.0306 H            1    LIG   0.0000
  50 H            3.1002     1.7142     1.0829 H            1    LIG   0.0000
  51 H            2.9531     2.0230    -1.3190 H            1    LIG   0.0000
  52 H            2.0603     0.6595    -1.4217 H            1    LIG   0.0000
  53 H            1.5024     2.0514    -2.0683 H            1    LIG   0.0000
  54 H           -3.4411     5.0758    -3.3608 H            1    LIG   0.0000
  55 H           -4.2497     7.2080    -4.4369 H            1    LIG   0.0000
  56 H           -4.8166     8.2887    -3.3519 H            1    LIG   0.0000
  57 H           -3.3439     8.5026    -4.0243 H            1    LIG   0.0000
  58 H           -3.2527     9.6116    -1.4937 H            1    LIG   0.0000
  59 H           -2.3330    10.0989     0.6535 H            1    LIG   0.0000
  60 H           -1.4529     8.3046     1.9921 H            1    LIG   0.0000
  61 H           -1.5208     6.0745     1.1444 H            1    LIG   0.0000
  62 H            0.8933     4.0476    -0.0728 H            1    LIG   0.0000
  63 H            0.0266     5.3503    -0.5403 H            1    LIG   0.0000
  64 H            2.4808     5.5574    -1.6607 H            1    LIG   0.0000
  65 H            2.1189     4.3655    -4.3113 H            1    LIG   0.0000
  66 H            3.1748     6.3002    -5.2127 H            1    LIG   0.0000
  67 H            1.8337     6.7285    -4.3852 H            1    LIG   0.0000
  68 H            3.3075     6.9275    -3.7108 H            1    LIG   0.0000
  69 H            4.4921     4.3201    -4.5021 H            1    LIG   0.0000
  70 H            4.6248     4.9474    -3.0003 H            1    LIG   0.0000
  71 H            4.0177     3.4457    -3.2072 H            1    LIG   0.0000
  72 H           -0.1579    -0.5298    -0.5611 H            1    LIG   0.0000
  73 H           -1.2408    -0.0581     0.5665 H            1    LIG   0.0000
@<TRIPOS>BOND
   1        1        2 1
   2        2        3 1
   3        3        4 1
   4        4        5 1
   5        5        6 am
   6        6        7 2
   7        6        8 1
   8        8        9 1
   9        9       10 1
  10       10       11 1
  11       11       12 1
  12       11       13 1
  13       13       14 1
  14       14       15 2
  15       15       16 1
  16       16       17 2
  17       17       18 1
  18       18       19 2
  19       19       20 1
  20       20       21 1
  21       20       22 1
  22       22       23 ar
  23       23       24 ar
  24       24       25 ar
  25       25       26 ar
  26       26       27 ar
  27       27       18 1
  28       27       22 ar
  29       17       28 1
  30       28       14 1
  31       28       29 1
  32       29       30 1
  33       30       31 2
  34       30       32 am
  35       32       33 1
  36       33       34 1
  37       33       35 1
  38       13       36 1
  39       36        8 1
  40        8       37 1
  41       11       38 1
  42        1       39 1
  43        1       40 1
  44        1       41 1
  45        3       42 1
  46        3       43 1
  47        4       44 1
  48        4       45 1
  49        5       46 1
  50        9       47 1
  51        9       48 1
  52       10       49 1
  53       10       50 1
  54       12       51 1
  55       12       52 1
  56       12       53 1
  57       19       54 1
  58       21       55 1
  59       21       56 1
  60       21       57 1
  61       23       58 1
  62       24       59 1
  63       25       60 1
  64       26       61 1
  65       29       62 1
  66       29       63 1
  67       32       64 1
  68       33       65 1
  69       34       66 1
  70       34       67 1
  71       34       68 1
  72       35       69 1
  73       35       70 1
  74       35       71 1
  75       36       72 1
  76       36       73 1

@<TRIPOS>MOLECULE

  73   76
SMALL
USER_CHARGES
@<TRIPOS>ATOM
   1 C1           0.9098    -2.1021     6.3739 C.3          1    LIG   0.0000
   2 O2           0.2447    -1.2491     5.4538 O.3          1    LIG   0.0000
   3 C3          -1.1644    -1.4218     5.4208 C.3          1    LIG   0.0000
   4 C4          -1.7687    -0.4635     4.4075 C.3          1    LIG   0.0000
   5 N5          -1.2097    -0.7412     3.0765 N.am         1    LIG   0.0000
   6 C6           0.0288    -0.2619     2.7401 C.2          1    LIG   0.0000
   7 O7           0.6574     0.3846     3.5318 O.2          1    LIG   0.0000
   8 C8           0.6068    -0.5491     1.3638 C.3          1    LIG   0.0000
   9 C9           2.0456    -0.0661     1.2530 C.3          1    LIG   0.0000
  10 C10          2.1408     1.4512     1.1844 C.3          1    LIG   0.0000
  11 C11          1.3490     1.9956     0.0060 C.3          1    LIG   0.0000
  12 C12          2.0240     1.6530    -1.3138 C.3          1    LIG   0.0000
  13 N13         -0.0067     1.4256    -0.0515 N.pl3        1    LIG   0.0000
  14 C14         -1.0595     2.2694    -0.4222 C.2          1    LIG   0.0000
  15 N15         -2.3250     1.9403    -0.5273 N.2          1    LIG   0.0000
  16 N16         -3.0168     2.9986    -0.9106 N.2          1    LIG   0.0000
  17 C17         -2.2227     4.0288    -1.0416 C.2          1    LIG   0.0000
  18 C18         -2.6058     5.3710    -1.4380 C.2          1    LIG   0.0000
  19 C19         -3.1961     5.7020    -2.6207 C.2          1    LIG   0.0000
  20 N20         -3.3881     7.0496    -2.6002 N.pl3        1    LIG   0.0000
  21 C21         -3.9984     7.8241    -3.6904 C.3          1    LIG   0.0000
  22 C22         -2.9260     7.5656    -1.4240 C.ar         1    LIG   0.0000
  23 C23         -2.8873     8.8678    -0.9341 C.ar         1    LIG   0.0000
  24 C24         -2.3520     9.1578     0.3160 C.ar         1    LIG   0.0000
  25 C25         -1.8436     8.1205     1.0901 C.ar         1    LIG   0.0000
  26 C26         -1.8866     6.8224     0.5905 C.ar         1    LIG   0.0000
  27 C27         -2.4265     6.5388    -0.6617 C.ar         1    LIG   0.0000
  28 N28         -0.9715     3.5899    -0.7433 N.pl3        1    LIG   0.0000
  29 C29          0.2533     4.4004    -0.7554 C.3          1    LIG   0.0000
  30 C30          0.8928     4.3316    -2.1327 C.2          1    LIG   0.0000
  31 O31          1.9099     4.9294    -2.3525 O.2          1    LIG   0.0000
  32 N32          0.3081     3.5872    -3.1230 N.am         1    LIG   0.0000
  33 C33          0.9265     3.5207    -4.4549 C.3          1    LIG   0.0000
  34 C34          1.2711     2.0768    -4.7820 C.3          1    LIG   0.0000
  35 C35         -0.0462     4.0570    -5.4926 C.3          1    LIG   0.0000
  36 C36         -0.2894     0.0148     0.2672 C.3          1    LIG   0.0000
  37 H            0.6202    -1.5427     1.2514 H            1    LIG   0.0000
  38 H            1.2816     2.9898     0.0896 H            1    LIG   0.0000
  39 H            1.8934    -1.9248     6.3418 H            1    LIG   0.0000
  40 H            0.5693    -1.9262     7.2975 H            1    LIG   0.0000
  41 H            0.7350    -3.0561     6.1302 H            1    LIG   0.0000
  42 H           -1.5446    -1.2328     6.3262 H            1    LIG   0.0000
  43 H           -1.3789    -2.3627     5.1589 H            1    LIG   0.0000
  44 H           -2.7610    -0.5851     4.3843 H            1    LIG   0.0000
  45 H           -1.5541     0.4775     4.6694 H            1    LIG   0.0000
  46 H           -1.7335    -1.2800     2.4168 H            1    LIG   0.0000
  47 H            2.4516    -0.4517     0.4244 H            1    LIG   0.0000
  48 H            2.5544    -0.3846     2.0528 H            1    LIG   0.0000
  49 H            1.7763     1.8400     2.0306 H            1    LIG   0.0000
  50 H            3.1002     1.7142     1.0829 H            1    LIG   0.0000
  51 H            2.9531     2.0230    -1.3190 H            1    LIG   0.0000
  52 H            2.0603     0.6595    -1.4217 H            1    LIG   0.0000
  53 H            1.5024     2.0514    -2.0683 H            1    LIG   0.0000
  54 H           -3.4411     5.0758    -3.3608 H            1    LIG   0.0000
  55 H           -4.2497     7.2080    -4.4369 H            1    LIG   0.0000
  56 H           -4.8166     8.2887    -3.3519 H            1    LIG   0.0000
  57 H           -3.3439     8.5026    -4.0243 H            1    LIG   0.0000
  58 H           -3.2527     9.6116    -1.4937 H            1    LIG   0.0000
  59 H           -2.3330    10.0989     0.6535 H            1    LIG   0.0000
  60 H           -1.4529     8.3046     1.9921 H            1    LIG   0.0000
  61 H           -1.5208     6.0745     1.1444 H            1    LIG   0.0000
  62 H            0.8933     4.0476    -0.0728 H            1    LIG   0.0000
  63 H            0.0266     5.3503    -0.5403 H            1    LIG   0.0000
  64 H           -0.5395     3.0891    -2.9398 H            1    LIG   0.0000
  65 H            1.7604     4.0725    -4.4632 H            1    LIG   0.0000
  66 H            1.6918     2.0316    -5.6881 H            1    LIG   0.0000
  67 H            1.9111     1.7240    -4.0993 H            1    LIG   0.0000
  68 H            0.4372     1.5250    -4.7737 H            1    LIG   0.0000
  69 H            0.3745     4.0117    -6.3986 H            1    LIG   0.0000
  70 H           -0.8801     3.5051    -5.4843 H            1    LIG   0.0000
  71 H           -0.2729     5.0068    -5.2774 H            1    LIG   0.0000
  72 H           -0.1579    -0.5298    -0.5611 H            1    LIG   0.0000
  73 H           -1.2408    -0.0581     0.5665 H            1    LIG   0.0000
@<TRIPOS>BOND
   1        1        2 1
   2        2        3 1
   3        3        4 1
   4        4        5 1
   5        5        6 am
   6        6        7 2
   7        6        8 1
   8        8        9 1
   9        9       10 1
  10       10       11 1
  11       11       12 1
  12       11       13 1
  13       13       14 1
  14       14       15 2
  15       15       16 1
  16       16       17 2
  17       17       18 1
  18       18       19 2
  19       19       20 1
  20       20       21 1
  21       20       22 1
  22       22       23 ar
  23       23       24 ar
  24       24       25 ar
  25       25       26 ar
  26       26       27 ar
  27       27       18 1
  28       27       22 ar
  29       17       28 1
  30       28       14 1
  31       28       29 1
  32       29       30 1
  33       30       31 2
  34       30       32 am
  35       32       33 1
  36       33       34 1
  37       33       35 1
  38       13       36 1
  39       36        8 1
  40        8       37 1
  41       11       38 1
  42        1       39 1
  43        1       40 1
  44        1       41 1
  45        3       42 1
  46        3       43 1
  47        4       44 1
  48        4       45 1
  49        5       46 1
  50        9       47 1
  51        9       48 1
  52       10       49 1
  53       10       50 1
  54       12       51 1
  55       12       52 1
  56       12       53 1
  57       19       54 1
  58       21       55 1
  59       21       56 1
  60       21       57 1
  61       23       58 1
  62       24       59 1
  63       25       60 1
  64       26       61 1
  65       29       62 1
  66       29       63 1
  67       32       64 1
  68       33       65 1
  69       34       66 1
  70       34       67 1
  71       34       68 1
  72       35       69 1
  73       35       70 1
  74       35       71 1
  75       36       72 1
  76       36       73 1

@<TRIPOS>MOLECULE

  73   76
SMALL
USER_CHARGES
@<TRIPOS>ATOM
   1 C1          -5.8024    -0.0271    -2.1515 C.3          1    LIG   0.0000
   2 O2          -4.8068     0.7891    -1.5523 O.3          1    LIG   0.0000
   3 C3          -4.3771     1.8689    -2.3683 C.3          1    LIG   0.0000
   4 C4          -3.3171     2.6707    -1.6308 C.3          1    LIG   0.0000
   5 N5          -2.1714     1.8024    -1.3237 N.am         1    LIG   0.0000
   6 C6          -1.0868     2.3094    -0.6577 C.2          1    LIG   0.0000
   7 O7          -1.0721     3.4623    -0.3250 O.2          1    LIG   0.0000
   8 C8           0.0979     1.4116    -0.3402 C.3          1    LIG   0.0000
   9 C9          -0.4317     0.2538     0.4980 C.3          1    LIG   0.0000
  10 C10          0.5488    -0.2081     1.5698 C.3          1    LIG   0.0000
  11 C11          2.0250    -0.0088     1.2353 C.3          1    LIG   0.0000
  12 C12          2.4896    -0.9214     0.1098 C.3          1    LIG   0.0000
  13 N13          2.2364     1.4147     0.9198 N.pl3        1    LIG   0.0000
  14 C14          3.4847     2.0149     1.1183 C.2          1    LIG   0.0000
  15 N15          3.7976     3.2659     0.8774 N.2          1    LIG   0.0000
  16 N16          5.0695     3.4592     1.1778 N.2          1    LIG   0.0000
  17 C17          5.5951     2.3520     1.6327 C.2          1    LIG   0.0000
  18 C18          6.9640     2.1626     2.0751 C.2          1    LIG   0.0000
  19 C19          7.5602     2.8404     3.0958 C.2          1    LIG   0.0000
  20 N20          8.8349     2.3713     3.1871 N.pl3        1    LIG   0.0000
  21 C21          9.8305     2.8393     4.1622 C.3          1    LIG   0.0000
  22 C22          9.0446     1.4120     2.2389 C.ar         1    LIG   0.0000
  23 C23         10.1649     0.6486     1.9238 C.ar         1    LIG   0.0000
  24 C24         10.1428    -0.2812     0.8903 C.ar         1    LIG   0.0000
  25 C25          8.9733    -0.4478     0.1566 C.ar         1    LIG   0.0000
  26 C26          7.8592     0.3209     0.4796 C.ar         1    LIG   0.0000
  27 C27          7.8877     1.2489     1.5179 C.ar         1    LIG   0.0000
  28 N28          4.6098     1.4165     1.5986 N.pl3        1    LIG   0.0000
  29 C29          4.7362     0.0141     2.0163 C.3          1    LIG   0.0000
  30 C30          4.4035    -0.1062     3.4946 C.2          1    LIG   0.0000
  31 O31          5.2710     0.0072     4.3159 O.2          1    LIG   0.0000
  32 N32          3.1133    -0.3440     3.8892 N.am         1    LIG   0.0000
  33 C33          2.7916    -0.4603     5.3189 C.3          1    LIG   0.0000
  34 C34          1.7828     0.6109     5.7000 C.3          1    LIG   0.0000
  35 C35          2.2014    -1.8335     5.5953 C.3          1    LIG   0.0000
  36 C36          1.1381     2.2423     0.3959 C.3          1    LIG   0.0000
  37 H            0.4896     1.0593    -1.1901 H            1    LIG   0.0000
  38 H            2.5595    -0.2275     2.0516 H            1    LIG   0.0000
  39 H           -6.0541    -0.7622    -1.5220 H            1    LIG   0.0000
  40 H           -6.6091     0.5273    -2.3563 H            1    LIG   0.0000
  41 H           -5.4451    -0.4211    -2.9983 H            1    LIG   0.0000
  42 H           -5.1566     2.4596    -2.5772 H            1    LIG   0.0000
  43 H           -3.9925     1.5112    -3.2192 H            1    LIG   0.0000
  44 H           -3.0145     3.4311    -2.2054 H            1    LIG   0.0000
  45 H           -3.7017     3.0284    -0.7798 H            1    LIG   0.0000
  46 H           -2.1836     0.8417    -1.6010 H            1    LIG   0.0000
  47 H           -0.6246    -0.5166    -0.1097 H            1    LIG   0.0000
  48 H           -1.2773     0.5456     0.9451 H            1    LIG   0.0000
  49 H            0.3511     0.2996     2.4084 H            1    LIG   0.0000
  50 H            0.3970    -1.1838     1.7272 H            1    LIG   0.0000
  51 H            2.3280    -1.8746     0.3654 H            1    LIG   0.0000
  52 H            1.9797    -0.7087    -0.7237 H            1    LIG   0.0000
  53 H            3.4664    -0.7806    -0.0518 H            1    LIG   0.0000
  54 H            7.1420     3.5463     3.6675 H            1    LIG   0.0000
  55 H            9.4232     3.5452     4.7418 H            1    LIG   0.0000
  56 H           10.1271     2.0717     4.7303 H            1    LIG   0.0000
  57 H           10.6184     3.2195     3.6778 H            1    LIG   0.0000
  58 H           11.0047     0.7717     2.4526 H            1    LIG   0.0000
  59 H           10.9563    -0.8224     0.6776 H            1    LIG   0.0000
  60 H            8.9334    -1.1099    -0.5917 H            1    LIG   0.0000
  61 H            7.0171     0.2041    -0.0468 H            1    LIG   0.0000
  62 H            5.6733    -0.2974     1.8591 H            1    LIG   0.0000
  63 H            4.1039    -0.5501     1.4854 H            1    LIG   0.0000
  64 H            2.3904    -0.4385     3.2048 H            1    LIG   0.0000
  65 H            3.6248    -0.3408     5.8588 H            1    LIG   0.0000
  66 H            1.5640     0.5317     6.6725 H            1    LIG   0.0000
  67 H            2.1711     1.5143     5.5182 H            1    LIG   0.0000
  68 H            0.9497     0.4913     5.1601 H            1    LIG   0.0000
  69 H            1.9825    -1.9126     6.5678 H            1    LIG   0.0000
  70 H            1.3682    -1.9530     5.0553 H            1    LIG   0.0000
  71 H            2.8651    -2.5382     5.3446 H            1    LIG   0.0000
  72 H            1.5168     2.9187    -0.2358 H            1    LIG   0.0000
  73 H            0.6948     2.7113     1.1599 H            1    LIG   0.0000
@<TRIPOS>BOND
   1        1        2 1
   2        2        3 1
   3        3        4 1
   4        4        5 1
   5        5        6 am
   6        6        7 2
   7        6        8 1
   8        8        9 1
   9        9       10 1
  10       10       11 1
  11       11       12 1
  12       11       13 1
  13       13       14 1
  14       14       15 2
  15       15       16 1
  16       16       17 2
  17       17       18 1
  18       18       19 2
  19       19       20 1
  20       20       21 1
  21       20       22 1
  22       22       23 ar
  23       23       24 ar
  24       24       25 ar
  25       25       26 ar
  26       26       27 ar
  27       27       18 1
  28       27       22 ar
  29       17       28 1
  30       28       14 1
  31       28       29 1
  32       29       30 1
  33       30       31 2
  34       30       32 am
  35       32       33 1
  36       33       34 1
  37       33       35 1
  38       13       36 1
  39       36        8 1
  40        8       37 1
  41       11       38 1
  42        1       39 1
  43        1       40 1
  44        1       41 1
  45        3       42 1
  46        3       43 1
  47        4       44 1
  48        4       45 1
  49        5       46 1
  50        9       47 1
  51        9       48 1
  52       10       49 1
  53       10       50 1
  54       12       51 1
  55       12       52 1
  56       12       53 1
  57       19       54 1
  58       21       55 1
  59       21       56 1
  60       21       57 1
  61       23       58 1
  62       24       59 1
  63       25       60 1
  64       26       61 1
  65       29       62 1
  66       29       63 1
  67       32       64 1
  68       33       65 1
  69       34       66 1
  70       34       67 1
  71       34       68 1
  72       35       69 1
  73       35       70 1
  74       35       71 1
  75       36       72 1
  76       36       73 1

@<TRIPOS>MOLECULE

  73   76
SMALL
USER_CHARGES
@<TRIPOS>ATOM
   1 C1          -5.8024    -0.0271    -2.1515 C.3          1    LIG   0.0000
   2 O2          -4.8068     0.7891    -1.5523 O.3          1    LIG   0.0000
   3 C3          -4.3771     1.8689    -2.3683 C.3          1    LIG   0.0000
   4 C4          -3.3171     2.6707    -1.6308 C.3          1    LIG   0.0000
   5 N5          -2.1714     1.8024    -1.3237 N.am         1    LIG   0.0000
   6 C6          -1.0868     2.3094    -0.6577 C.2          1    LIG   0.0000
   7 O7          -1.0721     3.4623    -0.3250 O.2          1    LIG   0.0000
   8 C8           0.0979     1.4116    -0.3402 C.3          1    LIG   0.0000
   9 C9          -0.4317     0.2538     0.4980 C.3          1    LIG   0.0000
  10 C10          0.5488    -0.2081     1.5698 C.3          1    LIG   0.0000
  11 C11          2.0250    -0.0088     1.2353 C.3          1    LIG   0.0000
  12 C12          2.4896    -0.9214     0.1098 C.3          1    LIG   0.0000
  13 N13          2.2364     1.4147     0.9198 N.pl3        1    LIG   0.0000
  14 C14          3.4847     2.0149     1.1183 C.2          1    LIG   0.0000
  15 N15          3.7976     3.2659     0.8774 N.2          1    LIG   0.0000
  16 N16          5.0695     3.4592     1.1778 N.2          1    LIG   0.0000
  17 C17          5.5951     2.3520     1.6327 C.2          1    LIG   0.0000
  18 C18          6.9640     2.1626     2.0751 C.2          1    LIG   0.0000
  19 C19          8.0713     2.3463     1.3027 C.2          1    LIG   0.0000
  20 N20          9.1482     2.0660     2.0869 N.pl3        1    LIG   0.0000
  21 C21         10.5476     2.1355     1.6420 C.3          1    LIG   0.0000
  22 C22          8.7309     1.7090     3.3366 C.ar         1    LIG   0.0000
  23 C23          9.4342     1.3296     4.4762 C.ar         1    LIG   0.0000
  24 C24          8.7792     0.9980     5.6569 C.ar         1    LIG   0.0000
  25 C25          7.3900     1.0464     5.6951 C.ar         1    LIG   0.0000
  26 C26          6.6966     1.4263     4.5500 C.ar         1    LIG   0.0000
  27 C27          7.3594     1.7594     3.3712 C.ar         1    LIG   0.0000
  28 N28          4.6098     1.4165     1.5986 N.pl3        1    LIG   0.0000
  29 C29          4.7362     0.0141     2.0163 C.3          1    LIG   0.0000
  30 C30          5.1560    -0.8332     0.8262 C.2          1    LIG   0.0000
  31 O31          5.3151    -2.0153     0.9576 O.2          1    LIG   0.0000
  32 N32          5.3528    -0.2472    -0.3964 N.am         1    LIG   0.0000
  33 C33          5.7588    -1.0666    -1.5473 C.3          1    LIG   0.0000
  34 C34          4.7106    -0.9567    -2.6425 C.3          1    LIG   0.0000
  35 C35          7.0961    -0.5725    -2.0745 C.3          1    LIG   0.0000
  36 C36          1.1381     2.2423     0.3959 C.3          1    LIG   0.0000
  37 H            0.4896     1.0593    -1.1901 H            1    LIG   0.0000
  38 H            2.5595    -0.2275     2.0516 H            1    LIG   0.0000
  39 H           -6.0541    -0.7622    -1.5220 H            1    LIG   0.0000
  40 H           -6.6091     0.5273    -2.3563 H            1    LIG   0.0000
  41 H           -5.4451    -0.4211    -2.9983 H            1    LIG   0.0000
  42 H           -5.1566     2.4596    -2.5772 H            1    LIG   0.0000
  43 H           -3.9925     1.5112    -3.2192 H            1    LIG   0.0000
  44 H           -3.0145     3.4311    -2.2054 H            1    LIG   0.0000
  45 H           -3.7017     3.0284    -0.7798 H            1    LIG   0.0000
  46 H           -2.1836     0.8417    -1.6010 H            1    LIG   0.0000
  47 H           -0.6246    -0.5166    -0.1097 H            1    LIG   0.0000
  48 H           -1.2773     0.5456     0.9451 H            1    LIG   0.0000
  49 H            0.3511     0.2996     2.4084 H            1    LIG   0.0000
  50 H            0.3970    -1.1838     1.7272 H            1    LIG   0.0000
  51 H            2.3280    -1.8746     0.3654 H            1    LIG   0.0000
  52 H            1.9797    -0.7087    -0.7237 H            1    LIG   0.0000
  53 H            3.4664    -0.7806    -0.0518 H            1    LIG   0.0000
  54 H            8.0895     2.6320     0.3445 H            1    LIG   0.0000
  55 H           10.5791     2.4223     0.6846 H            1    LIG   0.0000
  56 H           11.0438     2.7968     2.2046 H            1    LIG   0.0000
  57 H           10.9719     1.2347     1.7343 H            1    LIG   0.0000
  58 H           10.4331     1.2948     4.4451 H            1    LIG   0.0000
  59 H            9.2997     0.7287     6.4672 H            1    LIG   0.0000
  60 H            6.8967     0.8117     6.5328 H            1    LIG   0.0000
  61 H            5.6975     1.4609     4.5741 H            1    LIG   0.0000
  62 H            3.8564    -0.3110     2.3631 H            1    LIG   0.0000
  63 H            5.4258    -0.0582     2.7368 H            1    LIG   0.0000
  64 H            5.2202     0.7379    -0.5059 H            1    LIG   0.0000
  65 H            5.8448    -2.0215    -1.2629 H            1    LIG   0.0000
  66 H            4.9868    -1.5141    -3.4255 H            1    LIG   0.0000
  67 H            3.8308    -1.2818    -2.2957 H            1    LIG   0.0000
  68 H            4.6245    -0.0018    -2.9269 H            1    LIG   0.0000
  69 H            7.3723    -1.1300    -2.8574 H            1    LIG   0.0000
  70 H            7.0101     0.3823    -2.3589 H            1    LIG   0.0000
  71 H            7.7857    -0.6449    -1.3539 H            1    LIG   0.0000
  72 H            1.5168     2.9187    -0.2358 H            1    LIG   0.0000
  73 H            0.6948     2.7113     1.1599 H            1    LIG   0.0000
@<TRIPOS>BOND
   1        1        2 1
   2        2        3 1
   3        3        4 1
   4        4        5 1
   5        5        6 am
   6        6        7 2
   7        6        8 1
   8        8        9 1
   9        9       10 1
  10       10       11 1
  11       11       12 1
  12       11       13 1
  13       13       14 1
  14       14       15 2
  15       15       16 1
  16       16       17 2
  17       17       18 1
  18       18       19 2
  19       19       20 1
  20       20       21 1
  21       20       22 1
  22       22       23 ar
  23       23       24 ar
  24       24       25 ar
  25       25       26 ar
  26       26       27 ar
  27       27       18 1
  28       27       22 ar
  29       17       28 1
  30       28       14 1
  31       28       29 1
  32       29       30 1
  33       30       31 2
  34       30       32 am
  35       32       33 1
  36       33       34 1
  37       33       35 1
  38       13       36 1
  39       36        8 1
  40        8       37 1
  41       11       38 1
  42        1       39 1
  43        1       40 1
  44        1       41 1
  45        3       42 1
  46        3       43 1
  47        4       44 1
  48        4       45 1
  49        5       46 1
  50        9       47 1
  51        9       48 1
  52       10       49 1
  53       10       50 1
  54       12       51 1
  55       12       52 1
  56       12       53 1
  57       19       54 1
  58       21       55 1
  59       21       56 1
  60       21       57 1
  61       23       58 1
  62       24       59 1
  63       25       60 1
  64       26       61 1
  65       29       62 1
  66       29       63 1
  67       32       64 1
  68       33       65 1
  69       34       66 1
  70       34       67 1
  71       34       68 1
  72       35       69 1
  73       35       70 1
  74       35       71 1
  75       36       72 1
  76       36       73 1

