@<TRIPOS>MOLECULE
*****
 73 76 0 0 0
SMALL
USER_CHARGES

@<TRIPOS>ATOM
      1 C1         -5.8024   -0.0271   -2.1515 C.3     1  LIG1        0.0000
      2 O2         -4.8068    0.7891   -1.5523 O.3     1  LIG1        0.0000
      3 C3         -4.3771    1.8689   -2.3683 C.3     1  LIG1        0.0000
      4 C4         -3.3171    2.6707   -1.6308 C.3     1  LIG1        0.0000
      5 N5         -2.1714    1.8024   -1.3237 N.am    1  LIG1        0.0000
      6 C6         -1.0868    2.3094   -0.6577 C.2     1  LIG1        0.0000
      7 O7         -1.0721    3.4623   -0.3250 O.2     1  LIG1        0.0000
      8 C8          0.0979    1.4116   -0.3402 C.3     1  LIG1        0.0000
      9 C9         -0.4317    0.2538    0.4980 C.3     1  LIG1        0.0000
     10 C10         0.5488   -0.2081    1.5698 C.3     1  LIG1        0.0000
     11 C11         2.0250   -0.0088    1.2353 C.3     1  LIG1        0.0000
     12 C12         2.4896   -0.9214    0.1098 C.3     1  LIG1        0.0000
     13 N13         2.2364    1.4147    0.9198 N.pl3   1  LIG1        0.0000
     14 C14         3.4847    2.0149    1.1183 C.cat   1  LIG1        0.0000
     15 N15         3.7976    3.2659    0.8774 N.2     1  LIG1        0.0000
     16 N16         5.0695    3.4592    1.1778 N.2     1  LIG1        0.0000
     17 C17         5.5951    2.3520    1.6327 C.2     1  LIG1        0.0000
     18 C18         6.9640    2.1626    2.0751 C.2     1  LIG1        0.0000
     19 C19         8.0713    2.3463    1.3027 C.2     1  LIG1        0.0000
     20 N20         9.1482    2.0660    2.0869 N.pl3   1  LIG1        0.0000
     21 C21        10.5476    2.1355    1.6420 C.3     1  LIG1        0.0000
     22 C22         8.7309    1.7090    3.3366 C.3     1  LIG1        0.0000
     23 C23         9.4342    1.3296    4.4762 C.3     1  LIG1        0.0000
     24 C24         8.7792    0.9980    5.6569 C.3     1  LIG1        0.0000
     25 C25         7.3900    1.0464    5.6951 C.3     1  LIG1        0.0000
     26 C26         6.6966    1.4263    4.5500 C.3     1  LIG1        0.0000
     27 C27         7.3594    1.7594    3.3712 C.3     1  LIG1        0.0000
     28 N28         4.6098    1.4165    1.5986 N.pl3   1  LIG1        0.0000
     29 C29         4.7362    0.0141    2.0163 C.3     1  LIG1        0.0000
     30 C30         5.1560   -0.8332    0.8262 C.2     1  LIG1        0.0000
     31 O31         5.3151   -2.0153    0.9576 O.2     1  LIG1        0.0000
     32 N32         5.3528   -0.2472   -0.3964 N.am    1  LIG1        0.0000
     33 C33         5.7588   -1.0666   -1.5473 C.3     1  LIG1        0.0000
     34 C34         4.7106   -0.9567   -2.6425 C.3     1  LIG1        0.0000
     35 C35         7.0961   -0.5725   -2.0745 C.3     1  LIG1        0.0000
     36 C36         1.1381    2.2423    0.3959 C.3     1  LIG1        0.0000
     37 H           0.4896    1.0593   -1.1901 H       1  LIG1        0.0000
     38 H           2.5595   -0.2275    2.0516 H       1  LIG1        0.0000
     39 H          -6.0541   -0.7622   -1.5220 H       1  LIG1        0.0000
     40 H          -6.6091    0.5273   -2.3563 H       1  LIG1        0.0000
     41 H          -5.4451   -0.4211   -2.9983 H       1  LIG1        0.0000
     42 H          -5.1566    2.4596   -2.5772 H       1  LIG1        0.0000
     43 H          -3.9925    1.5112   -3.2192 H       1  LIG1        0.0000
     44 H          -3.0145    3.4311   -2.2054 H       1  LIG1        0.0000
     45 H          -3.7017    3.0284   -0.7798 H       1  LIG1        0.0000
     46 H          -2.1836    0.8417   -1.6010 H       1  LIG1        0.0000
     47 H          -0.6246   -0.5166   -0.1097 H       1  LIG1        0.0000
     48 H          -1.2773    0.5456    0.9451 H       1  LIG1        0.0000
     49 H           0.3511    0.2996    2.4084 H       1  LIG1        0.0000
     50 H           0.3970   -1.1838    1.7272 H       1  LIG1        0.0000
     51 H           2.3280   -1.8746    0.3654 H       1  LIG1        0.0000
     52 H           1.9797   -0.7087   -0.7237 H       1  LIG1        0.0000
     53 H           3.4664   -0.7806   -0.0518 H       1  LIG1        0.0000
     54 H           8.0895    2.6320    0.3445 H       1  LIG1        0.0000
     55 H          10.5791    2.4223    0.6846 H       1  LIG1        0.0000
     56 H          11.0438    2.7968    2.2046 H       1  LIG1        0.0000
     57 H          10.9719    1.2347    1.7343 H       1  LIG1        0.0000
     58 H          10.4331    1.2948    4.4451 H       1  LIG1        0.0000
     59 H           9.2997    0.7287    6.4672 H       1  LIG1        0.0000
     60 H           6.8967    0.8117    6.5328 H       1  LIG1        0.0000
     61 H           5.6975    1.4609    4.5741 H       1  LIG1        0.0000
     62 H           3.8564   -0.3110    2.3631 H       1  LIG1        0.0000
     63 H           5.4258   -0.0582    2.7368 H       1  LIG1        0.0000
     64 H           5.2202    0.7379   -0.5059 H       1  LIG1        0.0000
     65 H           5.8448   -2.0215   -1.2629 H       1  LIG1        0.0000
     66 H           4.9868   -1.5141   -3.4255 H       1  LIG1        0.0000
     67 H           3.8308   -1.2818   -2.2957 H       1  LIG1        0.0000
     68 H           4.6245   -0.0018   -2.9269 H       1  LIG1        0.0000
     69 H           7.3723   -1.1300   -2.8574 H       1  LIG1        0.0000
     70 H           7.0101    0.3823   -2.3589 H       1  LIG1        0.0000
     71 H           7.7857   -0.6449   -1.3539 H       1  LIG1        0.0000
     72 H           1.5168    2.9187   -0.2358 H       1  LIG1        0.0000
     73 H           0.6948    2.7113    1.1599 H       1  LIG1        0.0000
@<TRIPOS>BOND
     1     1     2    1
     2     2     3    1
     3     3     4    1
     4     4     5    1
     5     5     6   am
     6     6     7    2
     7     6     8    1
     8     8     9    1
     9     9    10    1
    10    10    11    1
    11    11    12    1
    12    11    13    1
    13    13    14    1
    14    14    15    2
    15    15    16    1
    16    16    17    2
    17    17    18    1
    18    18    19    2
    19    19    20    1
    20    20    21    1
    21    20    22    1
    22    22    23   ar
    23    23    24   ar
    24    24    25   ar
    25    25    26   ar
    26    26    27   ar
    27    27    18    1
    28    27    22   ar
    29    17    28    1
    30    28    14    1
    31    28    29    1
    32    29    30    1
    33    30    31    2
    34    30    32   am
    35    32    33    1
    36    33    34    1
    37    33    35    1
    38    13    36    1
    39    36     8    1
    40     8    37    1
    41    11    38    1
    42     1    39    1
    43     1    40    1
    44     1    41    1
    45     3    42    1
    46     3    43    1
    47     4    44    1
    48     4    45    1
    49     5    46    1
    50     9    47    1
    51     9    48    1
    52    10    49    1
    53    10    50    1
    54    12    51    1
    55    12    52    1
    56    12    53    1
    57    19    54    1
    58    21    55    1
    59    21    56    1
    60    21    57    1
    61    23    58    1
    62    24    59    1
    63    25    60    1
    64    26    61    1
    65    29    62    1
    66    29    63    1
    67    32    64    1
    68    33    65    1
    69    34    66    1
    70    34    67    1
    71    34    68    1
    72    35    69    1
    73    35    70    1
    74    35    71    1
    75    36    72    1
    76    36    73    1
