@<TRIPOS>MOLECULE
*****
 73 76 0 0 0
SMALL
USER_CHARGES

@<TRIPOS>ATOM
      1 C1          0.1387    3.2844    4.9260 C.3     1  LIG1        0.0000
      2 O2         -0.1092    1.9147    4.6449 O.3     1  LIG1        0.0000
      3 C3          0.4554    1.0195    5.5916 C.3     1  LIG1        0.0000
      4 C4          0.1293   -0.4107    5.1935 C.3     1  LIG1        0.0000
      5 N5          0.6883   -0.6885    3.8626 N.am    1  LIG1        0.0000
      6 C6          0.0288   -0.2619    2.7401 C.2     1  LIG1        0.0000
      7 O7         -1.0051    0.3384    2.8433 O.2     1  LIG1        0.0000
      8 C8          0.6068   -0.5491    1.3638 C.3     1  LIG1        0.0000
      9 C9          2.0456   -0.0661    1.2530 C.3     1  LIG1        0.0000
     10 C10         2.1408    1.4512    1.1844 C.3     1  LIG1        0.0000
     11 C11         1.3490    1.9956    0.0060 C.3     1  LIG1        0.0000
     12 C12         2.0240    1.6530   -1.3138 C.3     1  LIG1        0.0000
     13 N13        -0.0067    1.4256   -0.0515 N.pl3   1  LIG1        0.0000
     14 C14        -1.0595    2.2694   -0.4222 C.cat   1  LIG1        0.0000
     15 N15        -2.3250    1.9403   -0.5273 N.2     1  LIG1        0.0000
     16 N16        -3.0168    2.9986   -0.9106 N.2     1  LIG1        0.0000
     17 C17        -2.2227    4.0288   -1.0416 C.2     1  LIG1        0.0000
     18 C18        -2.6058    5.3710   -1.4380 C.2     1  LIG1        0.0000
     19 C19        -3.4906    6.1642   -0.7712 C.2     1  LIG1        0.0000
     20 N20        -3.5709    7.3327   -1.4652 N.pl3   1  LIG1        0.0000
     21 C21        -4.4214    8.4715   -1.0899 C.3     1  LIG1        0.0000
     22 C22        -2.7510    7.2814   -2.5554 C.3     1  LIG1        0.0000
     23 C23        -2.4898    8.2046   -3.5636 C.3     1  LIG1        0.0000
     24 C24        -1.6025    7.9210   -4.5958 C.3     1  LIG1        0.0000
     25 C25        -0.9651    6.6852   -4.6181 C.3     1  LIG1        0.0000
     26 C26        -1.2339    5.7694   -3.6055 C.3     1  LIG1        0.0000
     27 C27        -2.1223    6.0611   -2.5732 C.3     1  LIG1        0.0000
     28 N28        -0.9715    3.5899   -0.7433 N.pl3   1  LIG1        0.0000
     29 C29         0.2533    4.4004   -0.7554 C.3     1  LIG1        0.0000
     30 C30         0.4589    5.0284    0.6134 C.2     1  LIG1        0.0000
     31 O31        -0.3295    4.8198    1.4937 O.2     1  LIG1        0.0000
     32 N32         1.5442    5.8325    0.8422 N.am    1  LIG1        0.0000
     33 C33         1.7430    6.4398    2.1660 C.3     1  LIG1        0.0000
     34 C34         3.0697    5.9738    2.7432 C.3     1  LIG1        0.0000
     35 C35         1.7524    7.9539    2.0326 C.3     1  LIG1        0.0000
     36 C36        -0.2894    0.0148    0.2672 C.3     1  LIG1        0.0000
     37 H           0.6202   -1.5427    1.2514 H       1  LIG1        0.0000
     38 H           1.2816    2.9898    0.0896 H       1  LIG1        0.0000
     39 H          -0.2867    3.8517    4.2208 H       1  LIG1        0.0000
     40 H          -0.2476    3.5167    5.8186 H       1  LIG1        0.0000
     41 H           1.1250    3.4494    4.9364 H       1  LIG1        0.0000
     42 H           0.0752    1.2084    6.4970 H       1  LIG1        0.0000
     43 H           1.4477    1.1411    5.6148 H       1  LIG1        0.0000
     44 H           0.5269   -1.0412    5.8602 H       1  LIG1        0.0000
     45 H          -0.8630   -0.5323    5.1703 H       1  LIG1        0.0000
     46 H           1.5498   -1.1888    3.7766 H       1  LIG1        0.0000
     47 H           2.4516   -0.4517    0.4244 H       1  LIG1        0.0000
     48 H           2.5544   -0.3846    2.0528 H       1  LIG1        0.0000
     49 H           1.7763    1.8400    2.0306 H       1  LIG1        0.0000
     50 H           3.1002    1.7142    1.0829 H       1  LIG1        0.0000
     51 H           2.9531    2.0230   -1.3190 H       1  LIG1        0.0000
     52 H           2.0603    0.6595   -1.4217 H       1  LIG1        0.0000
     53 H           1.5024    2.0514   -2.0683 H       1  LIG1        0.0000
     54 H          -3.9856    5.9327    0.0663 H       1  LIG1        0.0000
     55 H          -4.9208    8.2526   -0.2517 H       1  LIG1        0.0000
     56 H          -3.8502    9.2779   -0.9367 H       1  LIG1        0.0000
     57 H          -5.0717    8.6587   -1.8262 H       1  LIG1        0.0000
     58 H          -2.9507    9.0919   -3.5453 H       1  LIG1        0.0000
     59 H          -1.4251    8.5960   -5.3119 H       1  LIG1        0.0000
     60 H          -0.3233    6.4582   -5.3506 H       1  LIG1        0.0000
     61 H          -0.7779    4.8795   -3.6194 H       1  LIG1        0.0000
     62 H           0.1693    5.1211   -1.4436 H       1  LIG1        0.0000
     63 H           1.0360    3.8184   -0.9761 H       1  LIG1        0.0000
     64 H           2.2012    6.0063    0.1086 H       1  LIG1        0.0000
     65 H           0.9993    6.1634    2.7746 H       1  LIG1        0.0000
     66 H           3.2050    6.3870    3.6437 H       1  LIG1        0.0000
     67 H           3.0636    4.9777    2.8309 H       1  LIG1        0.0000
     68 H           3.8135    6.2502    2.1345 H       1  LIG1        0.0000
     69 H           1.8876    8.3671    2.9332 H       1  LIG1        0.0000
     70 H           2.4962    8.2304    1.4240 H       1  LIG1        0.0000
     71 H           0.8796    8.2605    1.6529 H       1  LIG1        0.0000
     72 H          -0.1579   -0.5298   -0.5611 H       1  LIG1        0.0000
     73 H          -1.2408   -0.0581    0.5665 H       1  LIG1        0.0000
@<TRIPOS>BOND
     1     1     2    1
     2     2     3    1
     3     3     4    1
     4     4     5    1
     5     5     6   am
     6     6     7    2
     7     6     8    1
     8     8     9    1
     9     9    10    1
    10    10    11    1
    11    11    12    1
    12    11    13    1
    13    13    14    1
    14    14    15    2
    15    15    16    1
    16    16    17    2
    17    17    18    1
    18    18    19    2
    19    19    20    1
    20    20    21    1
    21    20    22    1
    22    22    23   ar
    23    23    24   ar
    24    24    25   ar
    25    25    26   ar
    26    26    27   ar
    27    27    18    1
    28    27    22   ar
    29    17    28    1
    30    28    14    1
    31    28    29    1
    32    29    30    1
    33    30    31    2
    34    30    32   am
    35    32    33    1
    36    33    34    1
    37    33    35    1
    38    13    36    1
    39    36     8    1
    40     8    37    1
    41    11    38    1
    42     1    39    1
    43     1    40    1
    44     1    41    1
    45     3    42    1
    46     3    43    1
    47     4    44    1
    48     4    45    1
    49     5    46    1
    50     9    47    1
    51     9    48    1
    52    10    49    1
    53    10    50    1
    54    12    51    1
    55    12    52    1
    56    12    53    1
    57    19    54    1
    58    21    55    1
    59    21    56    1
    60    21    57    1
    61    23    58    1
    62    24    59    1
    63    25    60    1
    64    26    61    1
    65    29    62    1
    66    29    63    1
    67    32    64    1
    68    33    65    1
    69    34    66    1
    70    34    67    1
    71    34    68    1
    72    35    69    1
    73    35    70    1
    74    35    71    1
    75    36    72    1
    76    36    73    1
