@<TRIPOS>MOLECULE
*****
 73 76 0 0 0
SMALL
USER_CHARGES

@<TRIPOS>ATOM
      1 C1          7.6692    0.3409    1.4008 C.3     1  LIG1        0.0000
      2 O2          6.6049    0.4756    2.3311 O.3     1  LIG1        0.0000
      3 C3          6.1193   -0.7596    2.8360 C.3     1  LIG1        0.0000
      4 C4          4.9884   -0.4964    3.8170 C.3     1  LIG1        0.0000
      5 N5          3.8999    0.2142    3.1308 N.am    1  LIG1        0.0000
      6 C6          3.0145   -0.4799    2.3490 C.2     1  LIG1        0.0000
      7 O7          3.1275   -1.6681    2.2245 O.2     1  LIG1        0.0000
      8 C8          1.8885    0.2552    1.6392 C.3     1  LIG1        0.0000
      9 C9          0.9762   -0.7065    0.8938 C.3     1  LIG1        0.0000
     10 C10         0.1495    0.0288   -0.1484 C.3     1  LIG1        0.0000
     11 C11        -0.0276    1.5128    0.1539 C.3     1  LIG1        0.0000
     12 C12        -0.7794    1.7500    1.4577 C.3     1  LIG1        0.0000
     13 N13         1.3024    2.1417    0.1852 N.pl3   1  LIG1        0.0000
     14 C14         1.5199    3.4604   -0.2291 C.cat   1  LIG1        0.0000
     15 N15         2.6659    4.0988   -0.2354 N.2     1  LIG1        0.0000
     16 N16         2.4743    5.3271   -0.6825 N.2     1  LIG1        0.0000
     17 C17         1.2154    5.5003   -0.9895 C.2     1  LIG1        0.0000
     18 C18         0.6131    6.7092   -1.5198 C.2     1  LIG1        0.0000
     19 C19         0.9601    7.3101   -2.6925 C.2     1  LIG1        0.0000
     20 N20         0.1649    8.4074   -2.8220 N.pl3   1  LIG1        0.0000
     21 C21         0.2132    9.3467   -3.9518 C.3     1  LIG1        0.0000
     22 C22        -0.6725    8.5020   -1.7482 C.3     1  LIG1        0.0000
     23 C23        -1.6509    9.4339   -1.4143 C.3     1  LIG1        0.0000
     24 C24        -2.3874    9.3245   -0.2400 C.3     1  LIG1        0.0000
     25 C25        -2.1362    8.2593    0.6179 C.3     1  LIG1        0.0000
     26 C26        -1.1555    7.3338    0.2748 C.3     1  LIG1        0.0000
     27 C27        -0.4231    7.4481   -0.9044 C.3     1  LIG1        0.0000
     28 N28         0.5858    4.3302   -0.7040 N.pl3   1  LIG1        0.0000
     29 C29        -0.8450    4.0530   -0.8867 C.3     1  LIG1        0.0000
     30 C30        -1.0805    3.5054   -2.2849 C.2     1  LIG1        0.0000
     31 O31        -1.0314    2.3227   -2.4823 O.2     1  LIG1        0.0000
     32 N32        -1.3488    4.3620   -3.3199 N.am    1  LIG1        0.0000
     33 C33        -1.5765    3.8324   -4.6721 C.3     1  LIG1        0.0000
     34 C34        -2.9672    4.2259   -5.1427 C.3     1  LIG1        0.0000
     35 C35        -0.5386    4.4067   -5.6226 C.3     1  LIG1        0.0000
     36 C36         2.4117    1.3107    0.6777 C.3     1  LIG1        0.0000
     37 H           1.3403    0.7199    2.3346 H       1  LIG1        0.0000
     38 H          -0.5525    1.9248   -0.5909 H       1  LIG1        0.0000
     39 H           7.9573    1.2468    1.0904 H       1  LIG1        0.0000
     40 H           8.4394   -0.1215    1.8401 H       1  LIG1        0.0000
     41 H           7.3604   -0.1975    0.6167 H       1  LIG1        0.0000
     42 H           6.8598   -1.2430    3.3029 H       1  LIG1        0.0000
     43 H           5.7809   -1.3190    2.0794 H       1  LIG1        0.0000
     44 H           4.6465   -1.3663    4.1726 H       1  LIG1        0.0000
     45 H           5.3269    0.0630    4.5736 H       1  LIG1        0.0000
     46 H           3.8057    1.2044    3.2345 H       1  LIG1        0.0000
     47 H           0.3616   -1.1480    1.5475 H       1  LIG1        0.0000
     48 H           1.5338   -1.4010    0.4392 H       1  LIG1        0.0000
     49 H           0.6037   -0.0619   -1.0347 H       1  LIG1        0.0000
     50 H          -0.7549   -0.3956   -0.1924 H       1  LIG1        0.0000
     51 H          -1.6774    1.3129    1.4089 H       1  LIG1        0.0000
     52 H          -0.2597    1.3600    2.2178 H       1  LIG1        0.0000
     53 H          -0.8944    2.7328    1.6020 H       1  LIG1        0.0000
     54 H           1.6634    7.0040   -3.3343 H       1  LIG1        0.0000
     55 H           0.9124    9.0501   -4.6022 H       1  LIG1        0.0000
     56 H          -0.6773    9.3678   -4.4061 H       1  LIG1        0.0000
     57 H           0.4375   10.2614   -3.6154 H       1  LIG1        0.0000
     58 H          -1.8282   10.1994   -2.0329 H       1  LIG1        0.0000
     59 H          -3.0876   10.0022   -0.0156 H       1  LIG1        0.0000
     60 H          -2.6526    8.1600    1.4685 H       1  LIG1        0.0000
     61 H          -0.9719    6.5673    0.8903 H       1  LIG1        0.0000
     62 H          -1.3661    4.8980   -0.7675 H       1  LIG1        0.0000
     63 H          -1.1429    3.3794   -0.2103 H       1  LIG1        0.0000
     64 H          -1.3897    5.3475   -3.1554 H       1  LIG1        0.0000
     65 H          -1.4993    2.8355   -4.6571 H       1  LIG1        0.0000
     66 H          -3.1222    3.8656   -6.0626 H       1  LIG1        0.0000
     67 H          -3.6500    3.8480   -4.5174 H       1  LIG1        0.0000
     68 H          -3.0445    5.2228   -5.1578 H       1  LIG1        0.0000
     69 H          -0.6936    4.0465   -6.5425 H       1  LIG1        0.0000
     70 H          -0.6159    5.4036   -5.6376 H       1  LIG1        0.0000
     71 H           0.3763    4.1479   -5.3130 H       1  LIG1        0.0000
     72 H           3.0740    1.8907    1.1520 H       1  LIG1        0.0000
     73 H           2.8569    0.8609   -0.0966 H       1  LIG1        0.0000
@<TRIPOS>BOND
     1     1     2    1
     2     2     3    1
     3     3     4    1
     4     4     5    1
     5     5     6   am
     6     6     7    2
     7     6     8    1
     8     8     9    1
     9     9    10    1
    10    10    11    1
    11    11    12    1
    12    11    13    1
    13    13    14    1
    14    14    15    2
    15    15    16    1
    16    16    17    2
    17    17    18    1
    18    18    19    2
    19    19    20    1
    20    20    21    1
    21    20    22    1
    22    22    23   ar
    23    23    24   ar
    24    24    25   ar
    25    25    26   ar
    26    26    27   ar
    27    27    18    1
    28    27    22   ar
    29    17    28    1
    30    28    14    1
    31    28    29    1
    32    29    30    1
    33    30    31    2
    34    30    32   am
    35    32    33    1
    36    33    34    1
    37    33    35    1
    38    13    36    1
    39    36     8    1
    40     8    37    1
    41    11    38    1
    42     1    39    1
    43     1    40    1
    44     1    41    1
    45     3    42    1
    46     3    43    1
    47     4    44    1
    48     4    45    1
    49     5    46    1
    50     9    47    1
    51     9    48    1
    52    10    49    1
    53    10    50    1
    54    12    51    1
    55    12    52    1
    56    12    53    1
    57    19    54    1
    58    21    55    1
    59    21    56    1
    60    21    57    1
    61    23    58    1
    62    24    59    1
    63    25    60    1
    64    26    61    1
    65    29    62    1
    66    29    63    1
    67    32    64    1
    68    33    65    1
    69    34    66    1
    70    34    67    1
    71    34    68    1
    72    35    69    1
    73    35    70    1
    74    35    71    1
    75    36    72    1
    76    36    73    1
