@<TRIPOS>MOLECULE
*****
 73 76 0 0 0
SMALL
USER_CHARGES

@<TRIPOS>ATOM
      1 C1          3.6484   -0.2911    7.1242 C.3     1  LIG1        0.0000
      2 O2          3.2712   -1.0815    6.0064 O.3     1  LIG1        0.0000
      3 C3          4.3277   -1.3273    5.0900 C.3     1  LIG1        0.0000
      4 C4          3.8132   -2.1778    3.9400 C.3     1  LIG1        0.0000
      5 N5          2.7247   -1.4671    3.2537 N.am    1  LIG1        0.0000
      6 C6          3.0145   -0.4799    2.3490 C.2     1  LIG1        0.0000
      7 O7          4.1569   -0.1954    2.1168 O.2     1  LIG1        0.0000
      8 C8          1.8885    0.2552    1.6392 C.3     1  LIG1        0.0000
      9 C9          0.9762   -0.7065    0.8938 C.3     1  LIG1        0.0000
     10 C10         0.1495    0.0288   -0.1484 C.3     1  LIG1        0.0000
     11 C11        -0.0276    1.5128    0.1539 C.3     1  LIG1        0.0000
     12 C12        -0.7794    1.7500    1.4577 C.3     1  LIG1        0.0000
     13 N13         1.3024    2.1417    0.1852 N.pl3   1  LIG1        0.0000
     14 C14         1.5199    3.4604   -0.2291 C.cat   1  LIG1        0.0000
     15 N15         2.6659    4.0988   -0.2354 N.2     1  LIG1        0.0000
     16 N16         2.4743    5.3271   -0.6825 N.2     1  LIG1        0.0000
     17 C17         1.2154    5.5003   -0.9895 C.2     1  LIG1        0.0000
     18 C18         0.6131    6.7092   -1.5198 C.2     1  LIG1        0.0000
     19 C19         0.6066    7.9214   -0.8976 C.2     1  LIG1        0.0000
     20 N20        -0.0540    8.7817   -1.7203 N.pl3   1  LIG1        0.0000
     21 C21        -0.2923   10.2024   -1.4273 C.3     1  LIG1        0.0000
     22 C22        -0.4611    8.1257   -2.8460 C.3     1  LIG1        0.0000
     23 C23        -1.1681    8.5553   -3.9653 C.3     1  LIG1        0.0000
     24 C24        -1.4789    7.6866   -5.0054 C.3     1  LIG1        0.0000
     25 C25        -1.0736    6.3590   -4.9205 C.3     1  LIG1        0.0000
     26 C26        -0.3678    5.9399   -3.7968 C.3     1  LIG1        0.0000
     27 C27        -0.0578    6.8162   -2.7596 C.3     1  LIG1        0.0000
     28 N28         0.5858    4.3302   -0.7040 N.pl3   1  LIG1        0.0000
     29 C29        -0.8450    4.0530   -0.8867 C.3     1  LIG1        0.0000
     30 C30        -1.5966    4.4092    0.3856 C.2     1  LIG1        0.0000
     31 O31        -1.0012    4.8441    1.3324 O.2     1  LIG1        0.0000
     32 N32        -2.9537    4.2339    0.4513 N.am    1  LIG1        0.0000
     33 C33        -3.6806    4.5785    1.6817 C.3     1  LIG1        0.0000
     34 C34        -4.7158    5.6486    1.3758 C.3     1  LIG1        0.0000
     35 C35        -4.3765    3.3402    2.2226 C.3     1  LIG1        0.0000
     36 C36         2.4117    1.3107    0.6777 C.3     1  LIG1        0.0000
     37 H           1.3403    0.7199    2.3346 H       1  LIG1        0.0000
     38 H          -0.5525    1.9248   -0.5909 H       1  LIG1        0.0000
     39 H           2.8576   -0.1606    7.7222 H       1  LIG1        0.0000
     40 H           4.3759   -0.7548    7.6300 H       1  LIG1        0.0000
     41 H           3.9773    0.5985    6.8075 H       1  LIG1        0.0000
     42 H           5.0682   -1.8108    5.5568 H       1  LIG1        0.0000
     43 H           4.6696   -0.4575    4.7344 H       1  LIG1        0.0000
     44 H           4.5572   -2.3509    3.2946 H       1  LIG1        0.0000
     45 H           3.4713   -3.0476    4.2956 H       1  LIG1        0.0000
     46 H           1.7727   -1.7042    3.4472 H       1  LIG1        0.0000
     47 H           0.3616   -1.1480    1.5475 H       1  LIG1        0.0000
     48 H           1.5338   -1.4010    0.4392 H       1  LIG1        0.0000
     49 H           0.6037   -0.0619   -1.0347 H       1  LIG1        0.0000
     50 H          -0.7549   -0.3956   -0.1924 H       1  LIG1        0.0000
     51 H          -1.6774    1.3129    1.4089 H       1  LIG1        0.0000
     52 H          -0.2597    1.3600    2.2178 H       1  LIG1        0.0000
     53 H          -0.8944    2.7328    1.6020 H       1  LIG1        0.0000
     54 H           1.0093    8.1374   -0.0081 H       1  LIG1        0.0000
     55 H           0.1080   10.4314   -0.5399 H       1  LIG1        0.0000
     56 H           0.1297   10.7648   -2.1384 H       1  LIG1        0.0000
     57 H          -1.2766   10.3775   -1.4041 H       1  LIG1        0.0000
     58 H          -1.4592    9.5103   -4.0227 H       1  LIG1        0.0000
     59 H          -1.9867    8.0117   -5.8031 H       1  LIG1        0.0000
     60 H          -1.2860    5.7154   -5.6558 H       1  LIG1        0.0000
     61 H          -0.0759    4.9856   -3.7324 H       1  LIG1        0.0000
     62 H          -0.9732    3.0820   -1.0888 H       1  LIG1        0.0000
     63 H          -1.1964    4.6007   -1.6459 H       1  LIG1        0.0000
     64 H          -3.4498    3.8715   -0.3377 H       1  LIG1        0.0000
     65 H          -3.0361    4.9235    2.3640 H       1  LIG1        0.0000
     66 H          -5.2103    5.8830    2.2128 H       1  LIG1        0.0000
     67 H          -4.2579    6.4633    1.0199 H       1  LIG1        0.0000
     68 H          -5.3603    5.3035    0.6934 H       1  LIG1        0.0000
     69 H          -4.8710    3.5746    3.0596 H       1  LIG1        0.0000
     70 H          -5.0210    2.9951    1.5403 H       1  LIG1        0.0000
     71 H          -3.6955    2.6362    2.4239 H       1  LIG1        0.0000
     72 H           3.0740    1.8907    1.1520 H       1  LIG1        0.0000
     73 H           2.8569    0.8609   -0.0966 H       1  LIG1        0.0000
@<TRIPOS>BOND
     1     1     2    1
     2     2     3    1
     3     3     4    1
     4     4     5    1
     5     5     6   am
     6     6     7    2
     7     6     8    1
     8     8     9    1
     9     9    10    1
    10    10    11    1
    11    11    12    1
    12    11    13    1
    13    13    14    1
    14    14    15    2
    15    15    16    1
    16    16    17    2
    17    17    18    1
    18    18    19    2
    19    19    20    1
    20    20    21    1
    21    20    22    1
    22    22    23   ar
    23    23    24   ar
    24    24    25   ar
    25    25    26   ar
    26    26    27   ar
    27    27    18    1
    28    27    22   ar
    29    17    28    1
    30    28    14    1
    31    28    29    1
    32    29    30    1
    33    30    31    2
    34    30    32   am
    35    32    33    1
    36    33    34    1
    37    33    35    1
    38    13    36    1
    39    36     8    1
    40     8    37    1
    41    11    38    1
    42     1    39    1
    43     1    40    1
    44     1    41    1
    45     3    42    1
    46     3    43    1
    47     4    44    1
    48     4    45    1
    49     5    46    1
    50     9    47    1
    51     9    48    1
    52    10    49    1
    53    10    50    1
    54    12    51    1
    55    12    52    1
    56    12    53    1
    57    19    54    1
    58    21    55    1
    59    21    56    1
    60    21    57    1
    61    23    58    1
    62    24    59    1
    63    25    60    1
    64    26    61    1
    65    29    62    1
    66    29    63    1
    67    32    64    1
    68    33    65    1
    69    34    66    1
    70    34    67    1
    71    34    68    1
    72    35    69    1
    73    35    70    1
    74    35    71    1
    75    36    72    1
    76    36    73    1
