@<TRIPOS>MOLECULE

  27   29
SMALL
USER_CHARGES
@<TRIPOS>ATOM
   1 F1           5.1287     3.3661     0.9787 F            1    LIG   0.0000
   2 C2           4.4766     2.2074     0.9900 C.ar         1    LIG   0.0000
   3 C3           5.1854     1.0107     1.0009 C.ar         1    LIG   0.0000
   4 C4           4.4833    -0.1903     1.0114 C.ar         1    LIG   0.0000
   5 C5           3.0921    -0.2069     1.0115 C.ar         1    LIG   0.0000
   6 C6           2.4007     1.0000     1.0000 C.ar         1    LIG   0.0000
   7 N7           1.0000     1.0000     1.0000 N.pl3        1    LIG   0.0000
   8 C8           0.2996    -0.2130     1.0111 C.ar         1    LIG   0.0000
   9 C9           0.5065    -1.0786     2.0805 C.ar         1    LIG   0.0000
  10 C10         -0.1632    -2.2962     2.1195 C.ar         1    LIG   0.0000
  11 C11         -1.0312    -2.6260     1.0846 C.ar         1    LIG   0.0000
  12 C12         -1.2418    -1.7546     0.0250 C.ar         1    LIG   0.0000
  13 C13         -0.5778    -0.5542    -0.0147 C.ar         1    LIG   0.0000
  14 O14         -0.9785     0.0670    -1.1372 O.3          1    LIG   0.0000
  15 C15         -1.5388    -0.9165    -1.9781 C.3          1    LIG   0.0000
  16 O16         -2.0435    -1.8508    -1.0487 O.3          1    LIG   0.0000
  17 C17          3.0857     2.2109     0.9890 C.ar         1    LIG   0.0000
  18 Cl18         2.1892     3.7485     0.9740 Cl           1    LIG   0.0000
  19 H            6.1854     1.0136     1.0013 H            1    LIG   0.0000
  20 H            4.9862    -1.0546     1.0189 H            1    LIG   0.0000
  21 H            2.5958    -1.0750     1.0197 H            1    LIG   0.0000
  22 H            0.5000     1.8660     0.9921 H            1    LIG   0.0000
  23 H            1.1337    -0.8261     2.8173 H            1    LIG   0.0000
  24 H           -0.0224    -2.9270     2.8825 H            1    LIG   0.0000
  25 H           -1.5105    -3.5034     1.1040 H            1    LIG   0.0000
  26 H           -0.8436    -1.3295    -2.5664 H            1    LIG   0.0000
  27 H           -2.2706    -0.5360    -2.5435 H            1    LIG   0.0000
@<TRIPOS>BOND
   1        1        2 1
   2        2        3 ar
   3        3        4 ar
   4        4        5 ar
   5        5        6 ar
   6        6        7 1
   7        7        8 1
   8        8        9 ar
   9        9       10 ar
  10       10       11 ar
  11       11       12 ar
  12       12       13 ar
  13       13        8 ar
  14       13       14 1
  15       14       15 1
  16       15       16 1
  17       16       12 1
  18        6       17 ar
  19       17        2 ar
  20       17       18 1
  21        3       19 1
  22        4       20 1
  23        5       21 1
  24        7       22 1
  25        9       23 1
  26       10       24 1
  27       11       25 1
  28       15       26 1
  29       15       27 1

@<TRIPOS>MOLECULE

  27   29
SMALL
USER_CHARGES
@<TRIPOS>ATOM
   1 F1           5.1287     3.3661     0.9787 F            1    LIG   0.0000
   2 C2           4.4766     2.2074     0.9900 C.ar         1    LIG   0.0000
   3 C3           5.1854     1.0107     1.0009 C.ar         1    LIG   0.0000
   4 C4           4.4833    -0.1903     1.0114 C.ar         1    LIG   0.0000
   5 C5           3.0921    -0.2069     1.0115 C.ar         1    LIG   0.0000
   6 C6           2.4007     1.0000     1.0000 C.ar         1    LIG   0.0000
   7 N7           1.0000     1.0000     1.0000 N.pl3        1    LIG   0.0000
   8 C8           0.2996    -0.2130     1.0111 C.ar         1    LIG   0.0000
   9 C9          -0.5567    -0.4647     2.0783 C.ar         1    LIG   0.0000
  10 C10         -1.2599    -1.6629     2.1282 C.ar         1    LIG   0.0000
  11 C11         -1.0933    -2.5899     1.1055 C.ar         1    LIG   0.0000
  12 C12         -0.2455    -2.3298     0.0378 C.ar         1    LIG   0.0000
  13 C13          0.4510    -1.1481    -0.0093 C.ar         1    LIG   0.0000
  14 O14          1.1749    -1.1763    -1.1414 O.3          1    LIG   0.0000
  15 C15          1.2508    -2.5232    -1.5518 C.3          1    LIG   0.0000
  16 O16          0.0406    -3.0542    -1.0567 O.3          1    LIG   0.0000
  17 C17          3.0857     2.2109     0.9890 C.ar         1    LIG   0.0000
  18 Cl18         2.1892     3.7485     0.9740 Cl           1    LIG   0.0000
  19 H            6.1854     1.0136     1.0013 H            1    LIG   0.0000
  20 H            4.9862    -1.0546     1.0189 H            1    LIG   0.0000
  21 H            2.5958    -1.0750     1.0197 H            1    LIG   0.0000
  22 H            0.5000     1.8660     0.9921 H            1    LIG   0.0000
  23 H           -0.6658     0.2128     2.8057 H            1    LIG   0.0000
  24 H           -1.8779    -1.8557     2.8904 H            1    LIG   0.0000
  25 H           -1.5915    -3.4563     1.1396 H            1    LIG   0.0000
  26 H            2.0411    -2.9821    -1.1456 H            1    LIG   0.0000
  27 H            1.2983    -2.5967    -2.5479 H            1    LIG   0.0000
@<TRIPOS>BOND
   1        1        2 1
   2        2        3 ar
   3        3        4 ar
   4        4        5 ar
   5        5        6 ar
   6        6        7 1
   7        7        8 1
   8        8        9 ar
   9        9       10 ar
  10       10       11 ar
  11       11       12 ar
  12       12       13 ar
  13       13        8 ar
  14       13       14 1
  15       14       15 1
  16       15       16 1
  17       16       12 1
  18        6       17 ar
  19       17        2 ar
  20       17       18 1
  21        3       19 1
  22        4       20 1
  23        5       21 1
  24        7       22 1
  25        9       23 1
  26       10       24 1
  27       11       25 1
  28       15       26 1
  29       15       27 1

@<TRIPOS>MOLECULE

  27   29
SMALL
USER_CHARGES
@<TRIPOS>ATOM
   1 F1           5.1287     3.0385    -0.2014 F            1    LIG   0.0000
   2 C2           4.4766     2.0406     0.3876 C.ar         1    LIG   0.0000
   3 C3           5.1854     1.0097     0.9954 C.ar         1    LIG   0.0000
   4 C4           4.4833    -0.0251     1.6050 C.ar         1    LIG   0.0000
   5 C5           3.0921    -0.0395     1.6134 C.ar         1    LIG   0.0000
   6 C6           2.4007     1.0000     1.0000 C.ar         1    LIG   0.0000
   7 N7           1.0000     1.0000     1.0000 N.pl3        1    LIG   0.0000
   8 C8           0.2996    -0.2130     1.0111 C.ar         1    LIG   0.0000
   9 C9           0.8917    -1.3162     0.4043 C.ar         1    LIG   0.0000
  10 C10          0.2210    -2.5338     0.3864 C.ar         1    LIG   0.0000
  11 C11         -1.0335    -2.6256     0.9788 C.ar         1    LIG   0.0000
  12 C12         -1.6154    -1.5246     1.5916 C.ar         1    LIG   0.0000
  13 C13         -0.9544    -0.3220     1.6060 C.ar         1    LIG   0.0000
  14 O14         -1.7483     0.5424     2.2609 O.3          1    LIG   0.0000
  15 C15         -3.0469    -0.0071     2.2633 C.3          1    LIG   0.0000
  16 O16         -2.7838    -1.3934     2.2416 O.3          1    LIG   0.0000
  17 C17          3.0857     2.0431     0.3850 C.ar         1    LIG   0.0000
  18 Cl18         2.1892     3.3673    -0.3967 Cl           1    LIG   0.0000
  19 H            6.1854     1.0124     0.9943 H            1    LIG   0.0000
  20 H            4.9862    -0.7699     2.0437 H            1    LIG   0.0000
  21 H            2.5958    -0.7872     2.0545 H            1    LIG   0.0000
  22 H            0.5000     1.8660     0.9921 H            1    LIG   0.0000
  23 H            1.7949    -1.2337    -0.0168 H            1    LIG   0.0000
  24 H            0.6358    -3.3337    -0.0472 H            1    LIG   0.0000
  25 H           -1.5235    -3.4972     0.9630 H            1    LIG   0.0000
  26 H           -3.5623     0.2769     1.4547 H            1    LIG   0.0000
  27 H           -3.5495     0.2537     3.0875 H            1    LIG   0.0000
@<TRIPOS>BOND
   1        1        2 1
   2        2        3 ar
   3        3        4 ar
   4        4        5 ar
   5        5        6 ar
   6        6        7 1
   7        7        8 1
   8        8        9 ar
   9        9       10 ar
  10       10       11 ar
  11       11       12 ar
  12       12       13 ar
  13       13        8 ar
  14       13       14 1
  15       14       15 1
  16       15       16 1
  17       16       12 1
  18        6       17 ar
  19       17        2 ar
  20       17       18 1
  21        3       19 1
  22        4       20 1
  23        5       21 1
  24        7       22 1
  25        9       23 1
  26       10       24 1
  27       11       25 1
  28       15       26 1
  29       15       27 1

@<TRIPOS>MOLECULE

  27   29
SMALL
USER_CHARGES
@<TRIPOS>ATOM
   1 F1           5.1287     3.0385    -0.2014 F            1    LIG   0.0000
   2 C2           4.4766     2.0406     0.3876 C.ar         1    LIG   0.0000
   3 C3           5.1854     1.0097     0.9954 C.ar         1    LIG   0.0000
   4 C4           4.4833    -0.0251     1.6050 C.ar         1    LIG   0.0000
   5 C5           3.0921    -0.0395     1.6134 C.ar         1    LIG   0.0000
   6 C6           2.4007     1.0000     1.0000 C.ar         1    LIG   0.0000
   7 N7           1.0000     1.0000     1.0000 N.pl3        1    LIG   0.0000
   8 C8           0.2996    -0.2130     1.0111 C.ar         1    LIG   0.0000
   9 C9          -0.5567    -0.4647     2.0783 C.ar         1    LIG   0.0000
  10 C10         -1.2599    -1.6629     2.1282 C.ar         1    LIG   0.0000
  11 C11         -1.0933    -2.5899     1.1055 C.ar         1    LIG   0.0000
  12 C12         -0.2455    -2.3298     0.0378 C.ar         1    LIG   0.0000
  13 C13          0.4510    -1.1481    -0.0093 C.ar         1    LIG   0.0000
  14 O14          1.1749    -1.1763    -1.1414 O.3          1    LIG   0.0000
  15 C15          1.2508    -2.5232    -1.5518 C.3          1    LIG   0.0000
  16 O16          0.0406    -3.0542    -1.0567 O.3          1    LIG   0.0000
  17 C17          3.0857     2.0431     0.3850 C.ar         1    LIG   0.0000
  18 Cl18         2.1892     3.3673    -0.3967 Cl           1    LIG   0.0000
  19 H            6.1854     1.0124     0.9943 H            1    LIG   0.0000
  20 H            4.9862    -0.7699     2.0437 H            1    LIG   0.0000
  21 H            2.5958    -0.7872     2.0545 H            1    LIG   0.0000
  22 H            0.5000     1.8660     0.9921 H            1    LIG   0.0000
  23 H           -0.6658     0.2128     2.8057 H            1    LIG   0.0000
  24 H           -1.8779    -1.8557     2.8904 H            1    LIG   0.0000
  25 H           -1.5915    -3.4563     1.1396 H            1    LIG   0.0000
  26 H            2.0411    -2.9821    -1.1456 H            1    LIG   0.0000
  27 H            1.2983    -2.5967    -2.5479 H            1    LIG   0.0000
@<TRIPOS>BOND
   1        1        2 1
   2        2        3 ar
   3        3        4 ar
   4        4        5 ar
   5        5        6 ar
   6        6        7 1
   7        7        8 1
   8        8        9 ar
   9        9       10 ar
  10       10       11 ar
  11       11       12 ar
  12       12       13 ar
  13       13        8 ar
  14       13       14 1
  15       14       15 1
  16       15       16 1
  17       16       12 1
  18        6       17 ar
  19       17        2 ar
  20       17       18 1
  21        3       19 1
  22        4       20 1
  23        5       21 1
  24        7       22 1
  25        9       23 1
  26       10       24 1
  27       11       25 1
  28       15       26 1
  29       15       27 1

@<TRIPOS>MOLECULE

  27   29
SMALL
USER_CHARGES
@<TRIPOS>ATOM
   1 F1           5.1287     3.0597     2.1646 F            1    LIG   0.0000
   2 C2           4.4766     2.0506     1.5950 C.ar         1    LIG   0.0000
   3 C3           5.1854     1.0088     1.0061 C.ar         1    LIG   0.0000
   4 C4           4.4833    -0.0365     0.4147 C.ar         1    LIG   0.0000
   5 C5           3.0921    -0.0509     0.4065 C.ar         1    LIG   0.0000
   6 C6           2.4007     1.0000     1.0000 C.ar         1    LIG   0.0000
   7 N7           1.0000     1.0000     1.0000 N.pl3        1    LIG   0.0000
   8 C8           0.2996    -0.2130     1.0111 C.ar         1    LIG   0.0000
   9 C9           0.8946    -1.3067     1.6319 C.ar         1    LIG   0.0000
  10 C10          0.2336    -2.5295     1.6527 C.ar         1    LIG   0.0000
  11 C11         -1.0151    -2.6356     1.0506 C.ar         1    LIG   0.0000
  12 C12         -1.6089    -1.5389     0.4413 C.ar         1    LIG   0.0000
  13 C13         -0.9544    -0.3328     0.4181 C.ar         1    LIG   0.0000
  14 O14         -1.7618     0.5276    -0.2255 O.3          1    LIG   0.0000
  15 C15         -2.6904    -0.2423    -0.9559 C.3          1    LIG   0.0000
  16 O16         -2.8003    -1.4058    -0.1649 O.3          1    LIG   0.0000
  17 C17          3.0857     2.0542     1.5959 C.ar         1    LIG   0.0000
  18 Cl18         2.1892     3.3932     2.3518 Cl           1    LIG   0.0000
  19 H            6.1854     1.0111     1.0079 H            1    LIG   0.0000
  20 H            4.9862    -0.7888    -0.0109 H            1    LIG   0.0000
  21 H            2.5958    -0.8069    -0.0205 H            1    LIG   0.0000
  22 H            0.5000     1.8660     0.9921 H            1    LIG   0.0000
  23 H            1.7931    -1.2137     2.0610 H            1    LIG   0.0000
  24 H            0.6511    -3.3231     2.0953 H            1    LIG   0.0000
  25 H           -1.4923    -3.5144     1.0567 H            1    LIG   0.0000
  26 H           -2.3450    -0.4563    -1.8696 H            1    LIG   0.0000
  27 H           -3.5696     0.2278    -1.0335 H            1    LIG   0.0000
@<TRIPOS>BOND
   1        1        2 1
   2        2        3 ar
   3        3        4 ar
   4        4        5 ar
   5        5        6 ar
   6        6        7 1
   7        7        8 1
   8        8        9 ar
   9        9       10 ar
  10       10       11 ar
  11       11       12 ar
  12       12       13 ar
  13       13        8 ar
  14       13       14 1
  15       14       15 1
  16       15       16 1
  17       16       12 1
  18        6       17 ar
  19       17        2 ar
  20       17       18 1
  21        3       19 1
  22        4       20 1
  23        5       21 1
  24        7       22 1
  25        9       23 1
  26       10       24 1
  27       11       25 1
  28       15       26 1
  29       15       27 1

@<TRIPOS>MOLECULE

  27   29
SMALL
USER_CHARGES
@<TRIPOS>ATOM
   1 F1           5.1287     3.0597     2.1646 F            1    LIG   0.0000
   2 C2           4.4766     2.0506     1.5950 C.ar         1    LIG   0.0000
   3 C3           5.1854     1.0088     1.0061 C.ar         1    LIG   0.0000
   4 C4           4.4833    -0.0365     0.4147 C.ar         1    LIG   0.0000
   5 C5           3.0921    -0.0509     0.4065 C.ar         1    LIG   0.0000
   6 C6           2.4007     1.0000     1.0000 C.ar         1    LIG   0.0000
   7 N7           1.0000     1.0000     1.0000 N.pl3        1    LIG   0.0000
   8 C8           0.2996    -0.2130     1.0111 C.ar         1    LIG   0.0000
   9 C9           0.5065    -1.0786     2.0805 C.ar         1    LIG   0.0000
  10 C10         -0.1632    -2.2962     2.1195 C.ar         1    LIG   0.0000
  11 C11         -1.0312    -2.6260     1.0846 C.ar         1    LIG   0.0000
  12 C12         -1.2418    -1.7546     0.0250 C.ar         1    LIG   0.0000
  13 C13         -0.5778    -0.5542    -0.0147 C.ar         1    LIG   0.0000
  14 O14         -0.9785     0.0670    -1.1372 O.3          1    LIG   0.0000
  15 C15         -1.5388    -0.9165    -1.9781 C.3          1    LIG   0.0000
  16 O16         -2.0435    -1.8508    -1.0487 O.3          1    LIG   0.0000
  17 C17          3.0857     2.0542     1.5959 C.ar         1    LIG   0.0000
  18 Cl18         2.1892     3.3932     2.3518 Cl           1    LIG   0.0000
  19 H            6.1854     1.0111     1.0079 H            1    LIG   0.0000
  20 H            4.9862    -0.7888    -0.0109 H            1    LIG   0.0000
  21 H            2.5958    -0.8069    -0.0205 H            1    LIG   0.0000
  22 H            0.5000     1.8660     0.9921 H            1    LIG   0.0000
  23 H            1.1337    -0.8261     2.8173 H            1    LIG   0.0000
  24 H           -0.0224    -2.9270     2.8825 H            1    LIG   0.0000
  25 H           -1.5105    -3.5034     1.1040 H            1    LIG   0.0000
  26 H           -0.8436    -1.3295    -2.5664 H            1    LIG   0.0000
  27 H           -2.2706    -0.5360    -2.5435 H            1    LIG   0.0000
@<TRIPOS>BOND
   1        1        2 1
   2        2        3 ar
   3        3        4 ar
   4        4        5 ar
   5        5        6 ar
   6        6        7 1
   7        7        8 1
   8        8        9 ar
   9        9       10 ar
  10       10       11 ar
  11       11       12 ar
  12       12       13 ar
  13       13        8 ar
  14       13       14 1
  15       14       15 1
  16       15       16 1
  17       16       12 1
  18        6       17 ar
  19       17        2 ar
  20       17       18 1
  21        3       19 1
  22        4       20 1
  23        5       21 1
  24        7       22 1
  25        9       23 1
  26       10       24 1
  27       11       25 1
  28       15       26 1
  29       15       27 1

@<TRIPOS>MOLECULE

  27   29
SMALL
USER_CHARGES
@<TRIPOS>ATOM
   1 F1           5.1287     2.2014     3.0385 F            1    LIG   0.0000
   2 C2           4.4766     1.6124     2.0406 C.ar         1    LIG   0.0000
   3 C3           5.1854     1.0046     1.0097 C.ar         1    LIG   0.0000
   4 C4           4.4833     0.3950    -0.0251 C.ar         1    LIG   0.0000
   5 C5           3.0921     0.3866    -0.0395 C.ar         1    LIG   0.0000
   6 C6           2.4007     1.0000     1.0000 C.ar         1    LIG   0.0000
   7 N7           1.0000     1.0000     1.0000 N.pl3        1    LIG   0.0000
   8 C8           0.2996    -0.2130     1.0111 C.ar         1    LIG   0.0000
   9 C9           1.0356    -1.3937     1.0184 C.ar         1    LIG   0.0000
  10 C10          0.3742    -2.6165     1.0184 C.ar         1    LIG   0.0000
  11 C11         -1.0160    -2.6354     1.0119 C.ar         1    LIG   0.0000
  12 C12         -1.7456    -1.4547     1.0147 C.ar         1    LIG   0.0000
  13 C13         -1.0922    -0.2478     1.0114 C.ar         1    LIG   0.0000
  14 O14         -2.0435     0.7016     1.0183 O.3          1    LIG   0.0000
  15 C15         -3.2424     0.0906     0.5966 C.3          1    LIG   0.0000
  16 O16         -3.0712    -1.2384     1.0394 O.3          1    LIG   0.0000
  17 C17          3.0857     1.6150     2.0431 C.ar         1    LIG   0.0000
  18 Cl18         2.1892     2.3967     3.3673 Cl           1    LIG   0.0000
  19 H            6.1854     1.0057     1.0124 H            1    LIG   0.0000
  20 H            4.9862    -0.0437    -0.7699 H            1    LIG   0.0000
  21 H            2.5958    -0.0545    -0.7872 H            1    LIG   0.0000
  22 H            0.5000     1.8660     0.9921 H            1    LIG   0.0000
  23 H            2.0351    -1.3629     1.0236 H            1    LIG   0.0000
  24 H            0.8921    -3.4720     1.0230 H            1    LIG   0.0000
  25 H           -1.4970    -3.5121     1.0051 H            1    LIG   0.0000
  26 H           -3.3401     0.1317    -0.3978 H            1    LIG   0.0000
  27 H           -4.0377     0.5168     1.0276 H            1    LIG   0.0000
@<TRIPOS>BOND
   1        1        2 1
   2        2        3 ar
   3        3        4 ar
   4        4        5 ar
   5        5        6 ar
   6        6        7 1
   7        7        8 1
   8        8        9 ar
   9        9       10 ar
  10       10       11 ar
  11       11       12 ar
  12       12       13 ar
  13       13        8 ar
  14       13       14 1
  15       14       15 1
  16       15       16 1
  17       16       12 1
  18        6       17 ar
  19       17        2 ar
  20       17       18 1
  21        3       19 1
  22        4       20 1
  23        5       21 1
  24        7       22 1
  25        9       23 1
  26       10       24 1
  27       11       25 1
  28       15       26 1
  29       15       27 1

@<TRIPOS>MOLECULE

  27   29
SMALL
USER_CHARGES
@<TRIPOS>ATOM
   1 F1           5.1287     2.2014     3.0385 F            1    LIG   0.0000
   2 C2           4.4766     1.6124     2.0406 C.ar         1    LIG   0.0000
   3 C3           5.1854     1.0046     1.0097 C.ar         1    LIG   0.0000
   4 C4           4.4833     0.3950    -0.0251 C.ar         1    LIG   0.0000
   5 C5           3.0921     0.3866    -0.0395 C.ar         1    LIG   0.0000
   6 C6           2.4007     1.0000     1.0000 C.ar         1    LIG   0.0000
   7 N7           1.0000     1.0000     1.0000 N.pl3        1    LIG   0.0000
   8 C8           0.2996    -0.2130     1.0111 C.ar         1    LIG   0.0000
   9 C9           0.8946    -1.3067     1.6319 C.ar         1    LIG   0.0000
  10 C10          0.2336    -2.5295     1.6527 C.ar         1    LIG   0.0000
  11 C11         -1.0151    -2.6356     1.0506 C.ar         1    LIG   0.0000
  12 C12         -1.6089    -1.5389     0.4413 C.ar         1    LIG   0.0000
  13 C13         -0.9544    -0.3328     0.4181 C.ar         1    LIG   0.0000
  14 O14         -1.7618     0.5276    -0.2255 O.3          1    LIG   0.0000
  15 C15         -2.6904    -0.2423    -0.9559 C.3          1    LIG   0.0000
  16 O16         -2.8003    -1.4058    -0.1649 O.3          1    LIG   0.0000
  17 C17          3.0857     1.6150     2.0431 C.ar         1    LIG   0.0000
  18 Cl18         2.1892     2.3967     3.3673 Cl           1    LIG   0.0000
  19 H            6.1854     1.0057     1.0124 H            1    LIG   0.0000
  20 H            4.9862    -0.0437    -0.7699 H            1    LIG   0.0000
  21 H            2.5958    -0.0545    -0.7872 H            1    LIG   0.0000
  22 H            0.5000     1.8660     0.9921 H            1    LIG   0.0000
  23 H            1.7931    -1.2137     2.0610 H            1    LIG   0.0000
  24 H            0.6511    -3.3231     2.0953 H            1    LIG   0.0000
  25 H           -1.4923    -3.5144     1.0567 H            1    LIG   0.0000
  26 H           -2.3450    -0.4563    -1.8696 H            1    LIG   0.0000
  27 H           -3.5696     0.2278    -1.0335 H            1    LIG   0.0000
@<TRIPOS>BOND
   1        1        2 1
   2        2        3 ar
   3        3        4 ar
   4        4        5 ar
   5        5        6 ar
   6        6        7 1
   7        7        8 1
   8        8        9 ar
   9        9       10 ar
  10       10       11 ar
  11       11       12 ar
  12       12       13 ar
  13       13        8 ar
  14       13       14 1
  15       14       15 1
  16       15       16 1
  17       16       12 1
  18        6       17 ar
  19       17        2 ar
  20       17       18 1
  21        3       19 1
  22        4       20 1
  23        5       21 1
  24        7       22 1
  25        9       23 1
  26       10       24 1
  27       11       25 1
  28       15       26 1
  29       15       27 1

@<TRIPOS>MOLECULE

  27   29
SMALL
USER_CHARGES
@<TRIPOS>ATOM
   1 F1           5.1287     2.2014     3.0385 F            1    LIG   0.0000
   2 C2           4.4766     1.6124     2.0406 C.ar         1    LIG   0.0000
   3 C3           5.1854     1.0046     1.0097 C.ar         1    LIG   0.0000
   4 C4           4.4833     0.3950    -0.0251 C.ar         1    LIG   0.0000
   5 C5           3.0921     0.3866    -0.0395 C.ar         1    LIG   0.0000
   6 C6           2.4007     1.0000     1.0000 C.ar         1    LIG   0.0000
   7 N7           1.0000     1.0000     1.0000 N.pl3        1    LIG   0.0000
   8 C8           0.2996    -0.2130     1.0111 C.ar         1    LIG   0.0000
   9 C9           0.5065    -1.0786     2.0805 C.ar         1    LIG   0.0000
  10 C10         -0.1632    -2.2962     2.1195 C.ar         1    LIG   0.0000
  11 C11         -1.0312    -2.6260     1.0846 C.ar         1    LIG   0.0000
  12 C12         -1.2418    -1.7546     0.0250 C.ar         1    LIG   0.0000
  13 C13         -0.5778    -0.5542    -0.0147 C.ar         1    LIG   0.0000
  14 O14         -0.9785     0.0670    -1.1372 O.3          1    LIG   0.0000
  15 C15         -1.5388    -0.9165    -1.9781 C.3          1    LIG   0.0000
  16 O16         -2.0435    -1.8508    -1.0487 O.3          1    LIG   0.0000
  17 C17          3.0857     1.6150     2.0431 C.ar         1    LIG   0.0000
  18 Cl18         2.1892     2.3967     3.3673 Cl           1    LIG   0.0000
  19 H            6.1854     1.0057     1.0124 H            1    LIG   0.0000
  20 H            4.9862    -0.0437    -0.7699 H            1    LIG   0.0000
  21 H            2.5958    -0.0545    -0.7872 H            1    LIG   0.0000
  22 H            0.5000     1.8660     0.9921 H            1    LIG   0.0000
  23 H            1.1337    -0.8261     2.8173 H            1    LIG   0.0000
  24 H           -0.0224    -2.9270     2.8825 H            1    LIG   0.0000
  25 H           -1.5105    -3.5034     1.1040 H            1    LIG   0.0000
  26 H           -0.8436    -1.3295    -2.5664 H            1    LIG   0.0000
  27 H           -2.2706    -0.5360    -2.5435 H            1    LIG   0.0000
@<TRIPOS>BOND
   1        1        2 1
   2        2        3 ar
   3        3        4 ar
   4        4        5 ar
   5        5        6 ar
   6        6        7 1
   7        7        8 1
   8        8        9 ar
   9        9       10 ar
  10       10       11 ar
  11       11       12 ar
  12       12       13 ar
  13       13        8 ar
  14       13       14 1
  15       14       15 1
  16       15       16 1
  17       16       12 1
  18        6       17 ar
  19       17        2 ar
  20       17       18 1
  21        3       19 1
  22        4       20 1
  23        5       21 1
  24        7       22 1
  25        9       23 1
  26       10       24 1
  27       11       25 1
  28       15       26 1
  29       15       27 1

@<TRIPOS>MOLECULE

  27   29
SMALL
USER_CHARGES
@<TRIPOS>ATOM
   1 F1           5.1287    -0.1646     3.0597 F            1    LIG   0.0000
   2 C2           4.4766     0.4050     2.0506 C.ar         1    LIG   0.0000
   3 C3           5.1854     0.9939     1.0088 C.ar         1    LIG   0.0000
   4 C4           4.4833     1.5853    -0.0365 C.ar         1    LIG   0.0000
   5 C5           3.0921     1.5935    -0.0509 C.ar         1    LIG   0.0000
   6 C6           2.4007     1.0000     1.0000 C.ar         1    LIG   0.0000
   7 N7           1.0000     1.0000     1.0000 N.pl3        1    LIG   0.0000
   8 C8           0.2996    -0.2130     1.0111 C.ar         1    LIG   0.0000
   9 C9           1.0356    -1.3937     1.0184 C.ar         1    LIG   0.0000
  10 C10          0.3742    -2.6165     1.0184 C.ar         1    LIG   0.0000
  11 C11         -1.0160    -2.6354     1.0119 C.ar         1    LIG   0.0000
  12 C12         -1.7456    -1.4547     1.0147 C.ar         1    LIG   0.0000
  13 C13         -1.0922    -0.2478     1.0114 C.ar         1    LIG   0.0000
  14 O14         -2.0435     0.7016     1.0183 O.3          1    LIG   0.0000
  15 C15         -3.2424     0.0906     0.5966 C.3          1    LIG   0.0000
  16 O16         -3.0712    -1.2384     1.0394 O.3          1    LIG   0.0000
  17 C17          3.0857     0.4041     2.0542 C.ar         1    LIG   0.0000
  18 Cl18         2.1892    -0.3518     3.3932 Cl           1    LIG   0.0000
  19 H            6.1854     0.9921     1.0111 H            1    LIG   0.0000
  20 H            4.9862     2.0109    -0.7888 H            1    LIG   0.0000
  21 H            2.5958     2.0205    -0.8069 H            1    LIG   0.0000
  22 H            0.5000     1.8660     0.9921 H            1    LIG   0.0000
  23 H            2.0351    -1.3629     1.0236 H            1    LIG   0.0000
  24 H            0.8921    -3.4720     1.0230 H            1    LIG   0.0000
  25 H           -1.4970    -3.5121     1.0051 H            1    LIG   0.0000
  26 H           -3.3401     0.1317    -0.3978 H            1    LIG   0.0000
  27 H           -4.0377     0.5168     1.0276 H            1    LIG   0.0000
@<TRIPOS>BOND
   1        1        2 1
   2        2        3 ar
   3        3        4 ar
   4        4        5 ar
   5        5        6 ar
   6        6        7 1
   7        7        8 1
   8        8        9 ar
   9        9       10 ar
  10       10       11 ar
  11       11       12 ar
  12       12       13 ar
  13       13        8 ar
  14       13       14 1
  15       14       15 1
  16       15       16 1
  17       16       12 1
  18        6       17 ar
  19       17        2 ar
  20       17       18 1
  21        3       19 1
  22        4       20 1
  23        5       21 1
  24        7       22 1
  25        9       23 1
  26       10       24 1
  27       11       25 1
  28       15       26 1
  29       15       27 1

@<TRIPOS>MOLECULE

  27   29
SMALL
USER_CHARGES
@<TRIPOS>ATOM
   1 F1           5.1287    -0.1646     3.0597 F            1    LIG   0.0000
   2 C2           4.4766     0.4050     2.0506 C.ar         1    LIG   0.0000
   3 C3           5.1854     0.9939     1.0088 C.ar         1    LIG   0.0000
   4 C4           4.4833     1.5853    -0.0365 C.ar         1    LIG   0.0000
   5 C5           3.0921     1.5935    -0.0509 C.ar         1    LIG   0.0000
   6 C6           2.4007     1.0000     1.0000 C.ar         1    LIG   0.0000
   7 N7           1.0000     1.0000     1.0000 N.pl3        1    LIG   0.0000
   8 C8           0.2996    -0.2130     1.0111 C.ar         1    LIG   0.0000
   9 C9           0.8917    -1.3162     0.4043 C.ar         1    LIG   0.0000
  10 C10          0.2210    -2.5338     0.3864 C.ar         1    LIG   0.0000
  11 C11         -1.0335    -2.6256     0.9788 C.ar         1    LIG   0.0000
  12 C12         -1.6154    -1.5246     1.5916 C.ar         1    LIG   0.0000
  13 C13         -0.9544    -0.3220     1.6060 C.ar         1    LIG   0.0000
  14 O14         -1.7483     0.5424     2.2609 O.3          1    LIG   0.0000
  15 C15         -3.0469    -0.0071     2.2633 C.3          1    LIG   0.0000
  16 O16         -2.7838    -1.3934     2.2416 O.3          1    LIG   0.0000
  17 C17          3.0857     0.4041     2.0542 C.ar         1    LIG   0.0000
  18 Cl18         2.1892    -0.3518     3.3932 Cl           1    LIG   0.0000
  19 H            6.1854     0.9921     1.0111 H            1    LIG   0.0000
  20 H            4.9862     2.0109    -0.7888 H            1    LIG   0.0000
  21 H            2.5958     2.0205    -0.8069 H            1    LIG   0.0000
  22 H            0.5000     1.8660     0.9921 H            1    LIG   0.0000
  23 H            1.7949    -1.2337    -0.0168 H            1    LIG   0.0000
  24 H            0.6358    -3.3337    -0.0472 H            1    LIG   0.0000
  25 H           -1.5235    -3.4972     0.9630 H            1    LIG   0.0000
  26 H           -3.5623     0.2769     1.4547 H            1    LIG   0.0000
  27 H           -3.5495     0.2537     3.0875 H            1    LIG   0.0000
@<TRIPOS>BOND
   1        1        2 1
   2        2        3 ar
   3        3        4 ar
   4        4        5 ar
   5        5        6 ar
   6        6        7 1
   7        7        8 1
   8        8        9 ar
   9        9       10 ar
  10       10       11 ar
  11       11       12 ar
  12       12       13 ar
  13       13        8 ar
  14       13       14 1
  15       14       15 1
  16       15       16 1
  17       16       12 1
  18        6       17 ar
  19       17        2 ar
  20       17       18 1
  21        3       19 1
  22        4       20 1
  23        5       21 1
  24        7       22 1
  25        9       23 1
  26       10       24 1
  27       11       25 1
  28       15       26 1
  29       15       27 1

@<TRIPOS>MOLECULE

  27   29
SMALL
USER_CHARGES
@<TRIPOS>ATOM
   1 F1           5.1287    -0.1646     3.0597 F            1    LIG   0.0000
   2 C2           4.4766     0.4050     2.0506 C.ar         1    LIG   0.0000
   3 C3           5.1854     0.9939     1.0088 C.ar         1    LIG   0.0000
   4 C4           4.4833     1.5853    -0.0365 C.ar         1    LIG   0.0000
   5 C5           3.0921     1.5935    -0.0509 C.ar         1    LIG   0.0000
   6 C6           2.4007     1.0000     1.0000 C.ar         1    LIG   0.0000
   7 N7           1.0000     1.0000     1.0000 N.pl3        1    LIG   0.0000
   8 C8           0.2996    -0.2130     1.0111 C.ar         1    LIG   0.0000
   9 C9          -0.5567    -0.4647     2.0783 C.ar         1    LIG   0.0000
  10 C10         -1.2599    -1.6629     2.1282 C.ar         1    LIG   0.0000
  11 C11         -1.0933    -2.5899     1.1055 C.ar         1    LIG   0.0000
  12 C12         -0.2455    -2.3298     0.0378 C.ar         1    LIG   0.0000
  13 C13          0.4510    -1.1481    -0.0093 C.ar         1    LIG   0.0000
  14 O14          1.1749    -1.1763    -1.1414 O.3          1    LIG   0.0000
  15 C15          1.2508    -2.5232    -1.5518 C.3          1    LIG   0.0000
  16 O16          0.0406    -3.0542    -1.0567 O.3          1    LIG   0.0000
  17 C17          3.0857     0.4041     2.0542 C.ar         1    LIG   0.0000
  18 Cl18         2.1892    -0.3518     3.3932 Cl           1    LIG   0.0000
  19 H            6.1854     0.9921     1.0111 H            1    LIG   0.0000
  20 H            4.9862     2.0109    -0.7888 H            1    LIG   0.0000
  21 H            2.5958     2.0205    -0.8069 H            1    LIG   0.0000
  22 H            0.5000     1.8660     0.9921 H            1    LIG   0.0000
  23 H           -0.6658     0.2128     2.8057 H            1    LIG   0.0000
  24 H           -1.8779    -1.8557     2.8904 H            1    LIG   0.0000
  25 H           -1.5915    -3.4563     1.1396 H            1    LIG   0.0000
  26 H            2.0411    -2.9821    -1.1456 H            1    LIG   0.0000
  27 H            1.2983    -2.5967    -2.5479 H            1    LIG   0.0000
@<TRIPOS>BOND
   1        1        2 1
   2        2        3 ar
   3        3        4 ar
   4        4        5 ar
   5        5        6 ar
   6        6        7 1
   7        7        8 1
   8        8        9 ar
   9        9       10 ar
  10       10       11 ar
  11       11       12 ar
  12       12       13 ar
  13       13        8 ar
  14       13       14 1
  15       14       15 1
  16       15       16 1
  17       16       12 1
  18        6       17 ar
  19       17        2 ar
  20       17       18 1
  21        3       19 1
  22        4       20 1
  23        5       21 1
  24        7       22 1
  25        9       23 1
  26       10       24 1
  27       11       25 1
  28       15       26 1
  29       15       27 1

