@<TRIPOS>MOLECULE
*****
 27 29 0 0 0
SMALL
USER_CHARGES

@<TRIPOS>ATOM
      1 F1          5.1287    3.3661    0.9787 F       1  LIG1        0.0000
      2 C2          4.4766    2.2074    0.9900 C.ar    1  LIG1        0.0000
      3 C3          5.1854    1.0107    1.0009 C.ar    1  LIG1        0.0000
      4 C4          4.4833   -0.1903    1.0114 C.ar    1  LIG1        0.0000
      5 C5          3.0921   -0.2069    1.0115 C.ar    1  LIG1        0.0000
      6 C6          2.4007    1.0000    1.0000 C.ar    1  LIG1        0.0000
      7 N7          1.0000    1.0000    1.0000 N.pl3   1  LIG1        0.0000
      8 C8          0.2996   -0.2130    1.0111 C.ar    1  LIG1        0.0000
      9 C9          0.5065   -1.0786    2.0805 C.ar    1  LIG1        0.0000
     10 C10        -0.1632   -2.2962    2.1195 C.ar    1  LIG1        0.0000
     11 C11        -1.0312   -2.6260    1.0846 C.ar    1  LIG1        0.0000
     12 C12        -1.2418   -1.7546    0.0250 C.ar    1  LIG1        0.0000
     13 C13        -0.5778   -0.5542   -0.0147 C.ar    1  LIG1        0.0000
     14 O14        -0.9785    0.0670   -1.1372 O.3     1  LIG1        0.0000
     15 C15        -1.5388   -0.9165   -1.9781 C.3     1  LIG1        0.0000
     16 O16        -2.0435   -1.8508   -1.0487 O.3     1  LIG1        0.0000
     17 C17         3.0857    2.2109    0.9890 C.ar    1  LIG1        0.0000
     18 Cl18        2.1892    3.7485    0.9740 Cl      1  LIG1        0.0000
     19 H           6.1854    1.0136    1.0013 H       1  LIG1        0.0000
     20 H           4.9862   -1.0546    1.0189 H       1  LIG1        0.0000
     21 H           2.5958   -1.0750    1.0197 H       1  LIG1        0.0000
     22 H           0.5000    1.8660    0.9921 H       1  LIG1        0.0000
     23 H           1.1337   -0.8261    2.8173 H       1  LIG1        0.0000
     24 H          -0.0224   -2.9270    2.8825 H       1  LIG1        0.0000
     25 H          -1.5105   -3.5034    1.1040 H       1  LIG1        0.0000
     26 H          -0.8436   -1.3295   -2.5664 H       1  LIG1        0.0000
     27 H          -2.2706   -0.5360   -2.5435 H       1  LIG1        0.0000
@<TRIPOS>BOND
     1     1     2    1
     2     2     3   ar
     3     3     4   ar
     4     4     5   ar
     5     5     6   ar
     6     6     7    1
     7     7     8    1
     8     8     9   ar
     9     9    10   ar
    10    10    11   ar
    11    11    12   ar
    12    12    13   ar
    13    13     8   ar
    14    13    14    1
    15    14    15    1
    16    15    16    1
    17    16    12    1
    18     6    17   ar
    19    17     2   ar
    20    17    18    1
    21     3    19    1
    22     4    20    1
    23     5    21    1
    24     7    22    1
    25     9    23    1
    26    10    24    1
    27    11    25    1
    28    15    26    1
    29    15    27    1
