@<TRIPOS>MOLECULE
*****
 27 29 0 0 0
SMALL
USER_CHARGES

@<TRIPOS>ATOM
      1 F1          5.1287   -0.1646    3.0597 F       1  LIG1        0.0000
      2 C2          4.4766    0.4050    2.0506 C.ar    1  LIG1        0.0000
      3 C3          5.1854    0.9939    1.0088 C.ar    1  LIG1        0.0000
      4 C4          4.4833    1.5853   -0.0365 C.ar    1  LIG1        0.0000
      5 C5          3.0921    1.5935   -0.0509 C.ar    1  LIG1        0.0000
      6 C6          2.4007    1.0000    1.0000 C.ar    1  LIG1        0.0000
      7 N7          1.0000    1.0000    1.0000 N.pl3   1  LIG1        0.0000
      8 C8          0.2996   -0.2130    1.0111 C.ar    1  LIG1        0.0000
      9 C9          0.8917   -1.3162    0.4043 C.ar    1  LIG1        0.0000
     10 C10         0.2210   -2.5338    0.3864 C.ar    1  LIG1        0.0000
     11 C11        -1.0335   -2.6256    0.9788 C.ar    1  LIG1        0.0000
     12 C12        -1.6154   -1.5246    1.5916 C.ar    1  LIG1        0.0000
     13 C13        -0.9544   -0.3220    1.6060 C.ar    1  LIG1        0.0000
     14 O14        -1.7483    0.5424    2.2609 O.3     1  LIG1        0.0000
     15 C15        -3.0469   -0.0071    2.2633 C.3     1  LIG1        0.0000
     16 O16        -2.7838   -1.3934    2.2416 O.3     1  LIG1        0.0000
     17 C17         3.0857    0.4041    2.0542 C.ar    1  LIG1        0.0000
     18 Cl18        2.1892   -0.3518    3.3932 Cl      1  LIG1        0.0000
     19 H           6.1854    0.9921    1.0111 H       1  LIG1        0.0000
     20 H           4.9862    2.0109   -0.7888 H       1  LIG1        0.0000
     21 H           2.5958    2.0205   -0.8069 H       1  LIG1        0.0000
     22 H           0.5000    1.8660    0.9921 H       1  LIG1        0.0000
     23 H           1.7949   -1.2337   -0.0168 H       1  LIG1        0.0000
     24 H           0.6358   -3.3337   -0.0472 H       1  LIG1        0.0000
     25 H          -1.5235   -3.4972    0.9630 H       1  LIG1        0.0000
     26 H          -3.5623    0.2769    1.4547 H       1  LIG1        0.0000
     27 H          -3.5495    0.2537    3.0875 H       1  LIG1        0.0000
@<TRIPOS>BOND
     1     1     2    1
     2     2     3   ar
     3     3     4   ar
     4     4     5   ar
     5     5     6   ar
     6     6     7    1
     7     7     8    1
     8     8     9   ar
     9     9    10   ar
    10    10    11   ar
    11    11    12   ar
    12    12    13   ar
    13    13     8   ar
    14    13    14    1
    15    14    15    1
    16    15    16    1
    17    16    12    1
    18     6    17   ar
    19    17     2   ar
    20    17    18    1
    21     3    19    1
    22     4    20    1
    23     5    21    1
    24     7    22    1
    25     9    23    1
    26    10    24    1
    27    11    25    1
    28    15    26    1
    29    15    27    1
