@<TRIPOS>MOLECULE
*****
 27 29 0 0 0
SMALL
USER_CHARGES

@<TRIPOS>ATOM
      1 F1          5.1287    3.3661    0.9787 F       1  LIG1        0.0000
      2 C2          4.4766    2.2074    0.9900 C.ar    1  LIG1        0.0000
      3 C3          5.1854    1.0107    1.0009 C.ar    1  LIG1        0.0000
      4 C4          4.4833   -0.1903    1.0114 C.ar    1  LIG1        0.0000
      5 C5          3.0921   -0.2069    1.0115 C.ar    1  LIG1        0.0000
      6 C6          2.4007    1.0000    1.0000 C.ar    1  LIG1        0.0000
      7 N7          1.0000    1.0000    1.0000 N.pl3   1  LIG1        0.0000
      8 C8          0.2996   -0.2130    1.0111 C.ar    1  LIG1        0.0000
      9 C9         -0.5567   -0.4647    2.0783 C.ar    1  LIG1        0.0000
     10 C10        -1.2599   -1.6629    2.1282 C.ar    1  LIG1        0.0000
     11 C11        -1.0933   -2.5899    1.1055 C.ar    1  LIG1        0.0000
     12 C12        -0.2455   -2.3298    0.0378 C.ar    1  LIG1        0.0000
     13 C13         0.4510   -1.1481   -0.0093 C.ar    1  LIG1        0.0000
     14 O14         1.1749   -1.1763   -1.1414 O.3     1  LIG1        0.0000
     15 C15         1.2508   -2.5232   -1.5518 C.3     1  LIG1        0.0000
     16 O16         0.0406   -3.0542   -1.0567 O.3     1  LIG1        0.0000
     17 C17         3.0857    2.2109    0.9890 C.ar    1  LIG1        0.0000
     18 Cl18        2.1892    3.7485    0.9740 Cl      1  LIG1        0.0000
     19 H           6.1854    1.0136    1.0013 H       1  LIG1        0.0000
     20 H           4.9862   -1.0546    1.0189 H       1  LIG1        0.0000
     21 H           2.5958   -1.0750    1.0197 H       1  LIG1        0.0000
     22 H           0.5000    1.8660    0.9921 H       1  LIG1        0.0000
     23 H          -0.6658    0.2128    2.8057 H       1  LIG1        0.0000
     24 H          -1.8779   -1.8557    2.8904 H       1  LIG1        0.0000
     25 H          -1.5915   -3.4563    1.1396 H       1  LIG1        0.0000
     26 H           2.0411   -2.9821   -1.1456 H       1  LIG1        0.0000
     27 H           1.2983   -2.5967   -2.5479 H       1  LIG1        0.0000
@<TRIPOS>BOND
     1     1     2    1
     2     2     3   ar
     3     3     4   ar
     4     4     5   ar
     5     5     6   ar
     6     6     7    1
     7     7     8    1
     8     8     9   ar
     9     9    10   ar
    10    10    11   ar
    11    11    12   ar
    12    12    13   ar
    13    13     8   ar
    14    13    14    1
    15    14    15    1
    16    15    16    1
    17    16    12    1
    18     6    17   ar
    19    17     2   ar
    20    17    18    1
    21     3    19    1
    22     4    20    1
    23     5    21    1
    24     7    22    1
    25     9    23    1
    26    10    24    1
    27    11    25    1
    28    15    26    1
    29    15    27    1
