@<TRIPOS>MOLECULE
*****
 27 29 0 0 0
SMALL
USER_CHARGES

@<TRIPOS>ATOM
      1 F1          5.1287    2.2014    3.0385 F       1  LIG1        0.0000
      2 C2          4.4766    1.6124    2.0406 C.ar    1  LIG1        0.0000
      3 C3          5.1854    1.0046    1.0097 C.ar    1  LIG1        0.0000
      4 C4          4.4833    0.3950   -0.0251 C.ar    1  LIG1        0.0000
      5 C5          3.0921    0.3866   -0.0395 C.ar    1  LIG1        0.0000
      6 C6          2.4007    1.0000    1.0000 C.ar    1  LIG1        0.0000
      7 N7          1.0000    1.0000    1.0000 N.pl3   1  LIG1        0.0000
      8 C8          0.2996   -0.2130    1.0111 C.ar    1  LIG1        0.0000
      9 C9          1.0356   -1.3937    1.0184 C.ar    1  LIG1        0.0000
     10 C10         0.3742   -2.6165    1.0184 C.ar    1  LIG1        0.0000
     11 C11        -1.0160   -2.6354    1.0119 C.ar    1  LIG1        0.0000
     12 C12        -1.7456   -1.4547    1.0147 C.ar    1  LIG1        0.0000
     13 C13        -1.0922   -0.2478    1.0114 C.ar    1  LIG1        0.0000
     14 O14        -2.0435    0.7016    1.0183 O.3     1  LIG1        0.0000
     15 C15        -3.2424    0.0906    0.5966 C.3     1  LIG1        0.0000
     16 O16        -3.0712   -1.2384    1.0394 O.3     1  LIG1        0.0000
     17 C17         3.0857    1.6150    2.0431 C.ar    1  LIG1        0.0000
     18 Cl18        2.1892    2.3967    3.3673 Cl      1  LIG1        0.0000
     19 H           6.1854    1.0057    1.0124 H       1  LIG1        0.0000
     20 H           4.9862   -0.0437   -0.7699 H       1  LIG1        0.0000
     21 H           2.5958   -0.0545   -0.7872 H       1  LIG1        0.0000
     22 H           0.5000    1.8660    0.9921 H       1  LIG1        0.0000
     23 H           2.0351   -1.3629    1.0236 H       1  LIG1        0.0000
     24 H           0.8921   -3.4720    1.0230 H       1  LIG1        0.0000
     25 H          -1.4970   -3.5121    1.0051 H       1  LIG1        0.0000
     26 H          -3.3401    0.1317   -0.3978 H       1  LIG1        0.0000
     27 H          -4.0377    0.5168    1.0276 H       1  LIG1        0.0000
@<TRIPOS>BOND
     1     1     2    1
     2     2     3   ar
     3     3     4   ar
     4     4     5   ar
     5     5     6   ar
     6     6     7    1
     7     7     8    1
     8     8     9   ar
     9     9    10   ar
    10    10    11   ar
    11    11    12   ar
    12    12    13   ar
    13    13     8   ar
    14    13    14    1
    15    14    15    1
    16    15    16    1
    17    16    12    1
    18     6    17   ar
    19    17     2   ar
    20    17    18    1
    21     3    19    1
    22     4    20    1
    23     5    21    1
    24     7    22    1
    25     9    23    1
    26    10    24    1
    27    11    25    1
    28    15    26    1
    29    15    27    1
