@<TRIPOS>MOLECULE

  14   14
SMALL
USER_CHARGES
@<TRIPOS>ATOM
   1 N1           1.5119     1.5119    -1.5596 N.1          1    LIG   0.0000
   2 C2           1.2925     1.2925    -0.4626 C.1          1    LIG   0.0000
   3 C3           1.0000     1.0000     1.0000 C.3          1    LIG   0.0000
   4 S4           2.0450     2.0450     2.0450 S.3          1    LIG   0.0000
   5 C5           1.5705     1.5705     3.6519 C.2          1    LIG   0.0000
   6 N6           2.0555     2.0607     4.7765 N.2          1    LIG   0.0000
   7 C7           1.4377     1.4431     5.8276 C.2          1    LIG   0.0000
   8 C8           0.5558     0.5543     5.2874 C.2          1    LIG   0.0000
   9 N9           0.6255     0.6255     3.9273 N.pl3        1    LIG   0.0000
  10 H            0.0936     0.0945     3.2677 H            1    LIG   0.0000
  11 H            0.0377     1.1925     1.1925 H            1    LIG   0.0000
  12 H            1.1925     0.0377     1.1925 H            1    LIG   0.0000
  13 H            1.6001     1.6100     6.8000 H            1    LIG   0.0000
  14 H           -0.0462    -0.0529     5.8060 H            1    LIG   0.0000
@<TRIPOS>BOND
   1        1        2 3
   2        2        3 1
   3        3        4 1
   4        4        5 1
   5        5        6 2
   6        6        7 1
   7        7        8 2
   8        8        9 1
   9        9        5 1
  10        9       10 1
  11        3       11 1
  12        3       12 1
  13        7       13 1
  14        8       14 1

@<TRIPOS>MOLECULE

  14   14
SMALL
USER_CHARGES
@<TRIPOS>ATOM
   1 N1           1.5119     1.5119    -1.5596 N.1          1    LIG   0.0000
   2 C2           1.2925     1.2925    -0.4626 C.1          1    LIG   0.0000
   3 C3           1.0000     1.0000     1.0000 C.3          1    LIG   0.0000
   4 S4           2.0450     2.0450     2.0450 S.3          1    LIG   0.0000
   5 C5           1.5705     1.5705     3.6519 C.2          1    LIG   0.0000
   6 N6           0.6648     0.6597     3.9521 N.2          1    LIG   0.0000
   7 C7           0.5707     0.5652     5.3123 C.2          1    LIG   0.0000
   8 C8           1.4613     1.4627     5.8230 C.2          1    LIG   0.0000
   9 N9           2.0964     2.0964     4.7959 N.pl3        1    LIG   0.0000
  10 H            2.8022     2.8013     4.8667 H            1    LIG   0.0000
  11 H            0.0377     1.1925     1.1925 H            1    LIG   0.0000
  12 H            1.1925     0.0377     1.1925 H            1    LIG   0.0000
  13 H           -0.0319    -0.0418     5.8304 H            1    LIG   0.0000
  14 H            1.6229     1.6297     6.7957 H            1    LIG   0.0000
@<TRIPOS>BOND
   1        1        2 3
   2        2        3 1
   3        3        4 1
   4        4        5 1
   5        5        6 2
   6        6        7 1
   7        7        8 2
   8        8        9 1
   9        9        5 1
  10        9       10 1
  11        3       11 1
  12        3       12 1
  13        7       13 1
  14        8       14 1

@<TRIPOS>MOLECULE

  14   14
SMALL
USER_CHARGES
@<TRIPOS>ATOM
   1 N1           1.5119     1.5119    -1.5596 N.1          1    LIG   0.0000
   2 C2           1.2925     1.2925    -0.4626 C.1          1    LIG   0.0000
   3 C3           1.0000     1.0000     1.0000 C.3          1    LIG   0.0000
   4 S4           2.0450     2.0450     2.0450 S.3          1    LIG   0.0000
   5 C5           2.9581     0.8768     2.9581 C.2          1    LIG   0.0000
   6 N6           3.6943    -0.0939     2.4523 N.2          1    LIG   0.0000
   7 C7           4.2564    -0.7997     3.4788 C.2          1    LIG   0.0000
   8 C8           3.8254    -0.2121     4.6314 C.2          1    LIG   0.0000
   9 N9           3.0152     0.8402     4.3209 N.pl3        1    LIG   0.0000
  10 H            2.5573     1.4577     4.9604 H            1    LIG   0.0000
  11 H            0.0377     1.1925     1.1925 H            1    LIG   0.0000
  12 H            1.1925     0.0377     1.1925 H            1    LIG   0.0000
  13 H            4.8635    -1.5905     3.4003 H            1    LIG   0.0000
  14 H            4.0652    -0.5058     5.5567 H            1    LIG   0.0000
@<TRIPOS>BOND
   1        1        2 3
   2        2        3 1
   3        3        4 1
   4        4        5 1
   5        5        6 2
   6        6        7 1
   7        7        8 2
   8        8        9 1
   9        9        5 1
  10        9       10 1
  11        3       11 1
  12        3       12 1
  13        7       13 1
  14        8       14 1

@<TRIPOS>MOLECULE

  14   14
SMALL
USER_CHARGES
@<TRIPOS>ATOM
   1 N1           1.5119     1.5119    -1.5596 N.1          1    LIG   0.0000
   2 C2           1.2925     1.2925    -0.4626 C.1          1    LIG   0.0000
   3 C3           1.0000     1.0000     1.0000 C.3          1    LIG   0.0000
   4 S4           2.0450     2.0450     2.0450 S.3          1    LIG   0.0000
   5 C5           2.9581     0.8768     2.9581 C.2          1    LIG   0.0000
   6 N6           3.0315     0.8116     4.2736 N.2          1    LIG   0.0000
   7 C7           3.8396    -0.2357     4.6172 C.2          1    LIG   0.0000
   8 C8           4.2539    -0.8020     3.4480 C.2          1    LIG   0.0000
   9 N9           3.7076    -0.1187     2.4019 N.pl3        1    LIG   0.0000
  10 H            3.8308    -0.3081     1.4277 H            1    LIG   0.0000
  11 H            0.0377     1.1925     1.1925 H            1    LIG   0.0000
  12 H            1.1925     0.0377     1.1925 H            1    LIG   0.0000
  13 H            4.0796    -0.5287     5.5428 H            1    LIG   0.0000
  14 H            4.8616    -1.5924     3.3700 H            1    LIG   0.0000
@<TRIPOS>BOND
   1        1        2 3
   2        2        3 1
   3        3        4 1
   4        4        5 1
   5        5        6 2
   6        6        7 1
   7        7        8 2
   8        8        9 1
   9        9        5 1
  10        9       10 1
  11        3       11 1
  12        3       12 1
  13        7       13 1
  14        8       14 1

@<TRIPOS>MOLECULE

  14   14
SMALL
USER_CHARGES
@<TRIPOS>ATOM
   1 N1           1.5119     1.5119    -1.5596 N.1          1    LIG   0.0000
   2 C2           1.2925     1.2925    -0.4626 C.1          1    LIG   0.0000
   3 C3           1.0000     1.0000     1.0000 C.3          1    LIG   0.0000
   4 S4           2.0450     2.0450     2.0450 S.3          1    LIG   0.0000
   5 C5           0.8768     2.9581     2.9581 C.2          1    LIG   0.0000
   6 N6           0.8160     3.0373     4.2735 N.2          1    LIG   0.0000
   7 C7          -0.2310     3.8458     4.6171 C.2          1    LIG   0.0000
   8 C8          -0.8033     4.2523     3.4480 C.2          1    LIG   0.0000
   9 N9          -0.1187     3.7076     2.4019 N.pl3        1    LIG   0.0000
  10 H           -0.3073     3.8318     1.4277 H            1    LIG   0.0000
  11 H            0.0377     1.1925     1.1925 H            1    LIG   0.0000
  12 H            1.1925     0.0377     1.1925 H            1    LIG   0.0000
  13 H           -0.5202     4.0906     5.5425 H            1    LIG   0.0000
  14 H           -1.5982     4.8540     3.3702 H            1    LIG   0.0000
@<TRIPOS>BOND
   1        1        2 3
   2        2        3 1
   3        3        4 1
   4        4        5 1
   5        5        6 2
   6        6        7 1
   7        7        8 2
   8        8        9 1
   9        9        5 1
  10        9       10 1
  11        3       11 1
  12        3       12 1
  13        7       13 1
  14        8       14 1

@<TRIPOS>MOLECULE

  14   14
SMALL
USER_CHARGES
@<TRIPOS>ATOM
   1 N1           1.5119     1.5119    -1.5596 N.1          1    LIG   0.0000
   2 C2           1.2925     1.2925    -0.4626 C.1          1    LIG   0.0000
   3 C3           1.0000     1.0000     1.0000 C.3          1    LIG   0.0000
   4 S4           2.0450     2.0450     2.0450 S.3          1    LIG   0.0000
   5 C5           0.8768     2.9581     2.9581 C.2          1    LIG   0.0000
   6 N6          -0.0984     3.6885     2.4524 N.2          1    LIG   0.0000
   7 C7          -0.8044     4.2503     3.4790 C.2          1    LIG   0.0000
   8 C8          -0.2108     3.8270     4.6313 C.2          1    LIG   0.0000
   9 N9           0.8402     3.0152     4.3209 N.pl3        1    LIG   0.0000
  10 H            1.4570     2.5563     4.9604 H            1    LIG   0.0000
  11 H            0.0377     1.1925     1.1925 H            1    LIG   0.0000
  12 H            1.1925     0.0377     1.1925 H            1    LIG   0.0000
  13 H           -1.5990     4.8524     3.4005 H            1    LIG   0.0000
  14 H           -0.5000     4.0727     5.5565 H            1    LIG   0.0000
@<TRIPOS>BOND
   1        1        2 3
   2        2        3 1
   3        3        4 1
   4        4        5 1
   5        5        6 2
   6        6        7 1
   7        7        8 2
   8        8        9 1
   9        9        5 1
  10        9       10 1
  11        3       11 1
  12        3       12 1
  13        7       13 1
  14        8       14 1

@<TRIPOS>MOLECULE

  14   14
SMALL
USER_CHARGES
@<TRIPOS>ATOM
   1 N1           1.5119     1.5119    -1.5596 N.1          1    LIG   0.0000
   2 C2           1.2925     1.2925    -0.4626 C.1          1    LIG   0.0000
   3 C3           1.0000     1.0000     1.0000 C.3          1    LIG   0.0000
   4 S4           2.0450     2.0450     2.0450 S.3          1    LIG   0.0000
   5 C5           3.6308     1.3724     1.7897 C.2          1    LIG   0.0000
   6 N6           4.7484     1.7971     2.3472 N.2          1    LIG   0.0000
   7 C7           5.7826     1.0204     1.9054 C.2          1    LIG   0.0000
   8 C8           5.2397     0.1052     1.0527 C.2          1    LIG   0.0000
   9 N9           3.8939     0.3112     0.9733 N.pl3        1    LIG   0.0000
  10 H            3.2354    -0.2084     0.4288 H            1    LIG   0.0000
  11 H            0.0377     1.1925     1.1925 H            1    LIG   0.0000
  12 H            1.1925     0.0377     1.1925 H            1    LIG   0.0000
  13 H            6.7464     1.1062     2.1576 H            1    LIG   0.0000
  14 H            5.7474    -0.6040     0.5635 H            1    LIG   0.0000
@<TRIPOS>BOND
   1        1        2 3
   2        2        3 1
   3        3        4 1
   4        4        5 1
   5        5        6 2
   6        6        7 1
   7        7        8 2
   8        8        9 1
   9        9        5 1
  10        9       10 1
  11        3       11 1
  12        3       12 1
  13        7       13 1
  14        8       14 1

@<TRIPOS>MOLECULE

  14   14
SMALL
USER_CHARGES
@<TRIPOS>ATOM
   1 N1           1.5119     1.5119    -1.5596 N.1          1    LIG   0.0000
   2 C2           1.2925     1.2925    -0.4626 C.1          1    LIG   0.0000
   3 C3           1.0000     1.0000     1.0000 C.3          1    LIG   0.0000
   4 S4           2.0450     2.0450     2.0450 S.3          1    LIG   0.0000
   5 C5           3.6308     1.3724     1.7897 C.2          1    LIG   0.0000
   6 N6           3.9193     0.3514     1.0059 N.2          1    LIG   0.0000
   7 C7           5.2648     0.1188     1.0647 C.2          1    LIG   0.0000
   8 C8           5.7787     1.0462     1.9221 C.2          1    LIG   0.0000
   9 N9           4.7686     1.8394     2.3807 N.pl3        1    LIG   0.0000
  10 H            4.8458     2.6056     3.0187 H            1    LIG   0.0000
  11 H            0.0377     1.1925     1.1925 H            1    LIG   0.0000
  12 H            1.1925     0.0377     1.1925 H            1    LIG   0.0000
  13 H            5.7720    -0.5910     0.5758 H            1    LIG   0.0000
  14 H            6.7426     1.1312     2.1744 H            1    LIG   0.0000
@<TRIPOS>BOND
   1        1        2 3
   2        2        3 1
   3        3        4 1
   4        4        5 1
   5        5        6 2
   6        6        7 1
   7        7        8 2
   8        8        9 1
   9        9        5 1
  10        9       10 1
  11        3       11 1
  12        3       12 1
  13        7       13 1
  14        8       14 1

@<TRIPOS>MOLECULE

  14   14
SMALL
USER_CHARGES
@<TRIPOS>ATOM
   1 N1           1.5119     1.5119    -1.5596 N.1          1    LIG   0.0000
   2 C2           1.2925     1.2925    -0.4626 C.1          1    LIG   0.0000
   3 C3           1.0000     1.0000     1.0000 C.3          1    LIG   0.0000
   4 S4           2.0450     2.0450     2.0450 S.3          1    LIG   0.0000
   5 C5           3.6308     1.3724     1.7897 C.2          1    LIG   0.0000
   6 N6           4.4869     1.7457     0.8582 N.2          1    LIG   0.0000
   7 C7           5.6200     0.9903     0.9745 C.2          1    LIG   0.0000
   8 C8           5.4103     0.1403     2.0200 C.2          1    LIG   0.0000
   9 N9           4.1714     0.3704     2.5418 N.pl3        1    LIG   0.0000
  10 H            3.7467    -0.0987     3.3161 H            1    LIG   0.0000
  11 H            0.0377     1.1925     1.1925 H            1    LIG   0.0000
  12 H            1.1925     0.0377     1.1925 H            1    LIG   0.0000
  13 H            6.4403     1.0493     0.4057 H            1    LIG   0.0000
  14 H            6.0611    -0.5428     2.3512 H            1    LIG   0.0000
@<TRIPOS>BOND
   1        1        2 3
   2        2        3 1
   3        3        4 1
   4        4        5 1
   5        5        6 2
   6        6        7 1
   7        7        8 2
   8        8        9 1
   9        9        5 1
  10        9       10 1
  11        3       11 1
  12        3       12 1
  13        7       13 1
  14        8       14 1

@<TRIPOS>MOLECULE

  14   14
SMALL
USER_CHARGES
@<TRIPOS>ATOM
   1 N1           1.5119     1.5119    -1.5596 N.1          1    LIG   0.0000
   2 C2           1.2925     1.2925    -0.4626 C.1          1    LIG   0.0000
   3 C3           1.0000     1.0000     1.0000 C.3          1    LIG   0.0000
   4 S4           2.0450     2.0450     2.0450 S.3          1    LIG   0.0000
   5 C5           3.6308     1.3724     1.7897 C.2          1    LIG   0.0000
   6 N6           4.1808     0.4027     2.4950 N.2          1    LIG   0.0000
   7 C7           5.4274     0.1488     1.9956 C.2          1    LIG   0.0000
   8 C8           5.6081     1.0111     0.9548 C.2          1    LIG   0.0000
   9 N9           4.4910     1.7803     0.8122 N.pl3        1    LIG   0.0000
  10 H            4.3346     2.4959     0.1315 H            1    LIG   0.0000
  11 H            0.0377     1.1925     1.1925 H            1    LIG   0.0000
  12 H            1.1925     0.0377     1.1925 H            1    LIG   0.0000
  13 H            6.0781    -0.5341     2.3276 H            1    LIG   0.0000
  14 H            6.4289     1.0701     0.3866 H            1    LIG   0.0000
@<TRIPOS>BOND
   1        1        2 3
   2        2        3 1
   3        3        4 1
   4        4        5 1
   5        5        6 2
   6        6        7 1
   7        7        8 2
   8        8        9 1
   9        9        5 1
  10        9       10 1
  11        3       11 1
  12        3       12 1
  13        7       13 1
  14        8       14 1

@<TRIPOS>MOLECULE

  14   14
SMALL
USER_CHARGES
@<TRIPOS>ATOM
   1 N1           1.5119     1.5119    -1.5596 N.1          1    LIG   0.0000
   2 C2           1.2925     1.2925    -0.4626 C.1          1    LIG   0.0000
   3 C3           1.0000     1.0000     1.0000 C.3          1    LIG   0.0000
   4 S4           2.0450     2.0450     2.0450 S.3          1    LIG   0.0000
   5 C5           1.3724     3.6308     1.7897 C.2          1    LIG   0.0000
   6 N6           1.8016     4.7494     2.3416 N.2          1    LIG   0.0000
   7 C7           1.0252     5.7837     1.8995 C.2          1    LIG   0.0000
   8 C8           0.1039     5.2394     1.0542 C.2          1    LIG   0.0000
   9 N9           0.3112     3.8939     0.9733 N.pl3        1    LIG   0.0000
  10 H           -0.2076     3.2356     0.4278 H            1    LIG   0.0000
  11 H            0.0377     1.1925     1.1925 H            1    LIG   0.0000
  12 H            1.1925     0.0377     1.1925 H            1    LIG   0.0000
  13 H            1.1149     6.7484     2.1469 H            1    LIG   0.0000
  14 H           -0.6099     5.7460     0.5708 H            1    LIG   0.0000
@<TRIPOS>BOND
   1        1        2 3
   2        2        3 1
   3        3        4 1
   4        4        5 1
   5        5        6 2
   6        6        7 1
   7        7        8 2
   8        8        9 1
   9        9        5 1
  10        9       10 1
  11        3       11 1
  12        3       12 1
  13        7       13 1
  14        8       14 1

@<TRIPOS>MOLECULE

  14   14
SMALL
USER_CHARGES
@<TRIPOS>ATOM
   1 N1           1.5119     1.5119    -1.5596 N.1          1    LIG   0.0000
   2 C2           1.2925     1.2925    -0.4626 C.1          1    LIG   0.0000
   3 C3           1.0000     1.0000     1.0000 C.3          1    LIG   0.0000
   4 S4           2.0450     2.0450     2.0450 S.3          1    LIG   0.0000
   5 C5           1.3724     3.6308     1.7897 C.2          1    LIG   0.0000
   6 N6           0.3468     3.9183     1.0115 N.2          1    LIG   0.0000
   7 C7           0.1139     5.2637     1.0706 C.2          1    LIG   0.0000
   8 C8           1.0475     5.7790     1.9205 C.2          1    LIG   0.0000
   9 N9           1.8394     4.7686     2.3807 N.pl3        1    LIG   0.0000
  10 H            2.6048     4.8457     3.0197 H            1    LIG   0.0000
  11 H            0.0377     1.1925     1.1925 H            1    LIG   0.0000
  12 H            1.1925     0.0377     1.1925 H            1    LIG   0.0000
  13 H           -0.5997     5.7700     0.5865 H            1    LIG   0.0000
  14 H            1.1372     6.7440     2.1671 H            1    LIG   0.0000
@<TRIPOS>BOND
   1        1        2 3
   2        2        3 1
   3        3        4 1
   4        4        5 1
   5        5        6 2
   6        6        7 1
   7        7        8 2
   8        8        9 1
   9        9        5 1
  10        9       10 1
  11        3       11 1
  12        3       12 1
  13        7       13 1
  14        8       14 1

@<TRIPOS>MOLECULE

  14   14
SMALL
USER_CHARGES
@<TRIPOS>ATOM
   1 N1           1.5119     1.5119    -1.5596 N.1          1    LIG   0.0000
   2 C2           1.2925     1.2925    -0.4626 C.1          1    LIG   0.0000
   3 C3           1.0000     1.0000     1.0000 C.3          1    LIG   0.0000
   4 S4           2.0450     2.0450     2.0450 S.3          1    LIG   0.0000
   5 C5           1.3724     3.6308     1.7897 C.2          1    LIG   0.0000
   6 N6           0.4077     4.1836     2.4995 N.2          1    LIG   0.0000
   7 C7           0.1540     5.4304     2.0004 C.2          1    LIG   0.0000
   8 C8           1.0097     5.6073     0.9535 C.2          1    LIG   0.0000
   9 N9           1.7803     4.4910     0.8122 N.pl3        1    LIG   0.0000
  10 H            2.4968     4.3351     0.1322 H            1    LIG   0.0000
  11 H            0.0377     1.1925     1.1925 H            1    LIG   0.0000
  12 H            1.1925     0.0377     1.1925 H            1    LIG   0.0000
  13 H           -0.5246     6.0835     2.3363 H            1    LIG   0.0000
  14 H            1.0636     6.4252     0.3807 H            1    LIG   0.0000
@<TRIPOS>BOND
   1        1        2 3
   2        2        3 1
   3        3        4 1
   4        4        5 1
   5        5        6 2
   6        6        7 1
   7        7        8 2
   8        8        9 1
   9        9        5 1
  10        9       10 1
  11        3       11 1
  12        3       12 1
  13        7       13 1
  14        8       14 1

@<TRIPOS>MOLECULE

  14   14
SMALL
USER_CHARGES
@<TRIPOS>ATOM
   1 N1           1.5119     1.5119    -1.5596 N.1          1    LIG   0.0000
   2 C2           1.2925     1.2925    -0.4626 C.1          1    LIG   0.0000
   3 C3           1.0000     1.0000     1.0000 C.3          1    LIG   0.0000
   4 S4           2.0450     2.0450     2.0450 S.3          1    LIG   0.0000
   5 C5           1.3724     3.6308     1.7897 C.2          1    LIG   0.0000
   6 N6           1.7408     4.4841     0.8536 N.2          1    LIG   0.0000
   7 C7           0.9851     5.6170     0.9697 C.2          1    LIG   0.0000
   8 C8           0.1417     5.4111     2.0213 C.2          1    LIG   0.0000
   9 N9           0.3704     4.1714     2.5418 N.pl3        1    LIG   0.0000
  10 H           -0.0996     3.7462     3.3153 H            1    LIG   0.0000
  11 H            0.0377     1.1925     1.1925 H            1    LIG   0.0000
  12 H            1.1925     0.0377     1.1925 H            1    LIG   0.0000
  13 H            1.0398     6.4349     0.3970 H            1    LIG   0.0000
  14 H           -0.5363     6.0648     2.3572 H            1    LIG   0.0000
@<TRIPOS>BOND
   1        1        2 3
   2        2        3 1
   3        3        4 1
   4        4        5 1
   5        5        6 2
   6        6        7 1
   7        7        8 2
   8        8        9 1
   9        9        5 1
  10        9       10 1
  11        3       11 1
  12        3       12 1
  13        7       13 1
  14        8       14 1

