@<TRIPOS>MOLECULE
*****
 14 14 0 0 0
SMALL
USER_CHARGES

@<TRIPOS>ATOM
      1 N1          1.5119    1.5119   -1.5596 N.1     1  LIG1        0.0000
      2 C2          1.2925    1.2925   -0.4626 C.1     1  LIG1        0.0000
      3 C3          1.0000    1.0000    1.0000 C.3     1  LIG1        0.0000
      4 S4          2.0450    2.0450    2.0450 S.3     1  LIG1        0.0000
      5 C5          3.6308    1.3724    1.7897 C.2     1  LIG1        0.0000
      6 N6          4.1808    0.4027    2.4950 N.2     1  LIG1        0.0000
      7 C7          5.4274    0.1488    1.9956 C.2     1  LIG1        0.0000
      8 C8          5.6081    1.0111    0.9548 C.2     1  LIG1        0.0000
      9 N9          4.4910    1.7803    0.8122 N.pl3   1  LIG1        0.0000
     10 H           4.3346    2.4959    0.1315 H       1  LIG1        0.0000
     11 H           0.0377    1.1925    1.1925 H       1  LIG1        0.0000
     12 H           1.1925    0.0377    1.1925 H       1  LIG1        0.0000
     13 H           6.0781   -0.5341    2.3276 H       1  LIG1        0.0000
     14 H           6.4289    1.0701    0.3866 H       1  LIG1        0.0000
@<TRIPOS>BOND
     1     1     2    3
     2     2     3    1
     3     3     4    1
     4     4     5    1
     5     5     6    2
     6     6     7    1
     7     7     8    2
     8     8     9    1
     9     9     5    1
    10     9    10    1
    11     3    11    1
    12     3    12    1
    13     7    13    1
    14     8    14    1
