@<TRIPOS>MOLECULE
*****
 14 14 0 0 0
SMALL
USER_CHARGES

@<TRIPOS>ATOM
      1 N1          1.5119    1.5119   -1.5596 N.1     1  LIG1        0.0000
      2 C2          1.2925    1.2925   -0.4626 C.1     1  LIG1        0.0000
      3 C3          1.0000    1.0000    1.0000 C.3     1  LIG1        0.0000
      4 S4          2.0450    2.0450    2.0450 S.3     1  LIG1        0.0000
      5 C5          1.3724    3.6308    1.7897 C.2     1  LIG1        0.0000
      6 N6          1.8016    4.7494    2.3416 N.2     1  LIG1        0.0000
      7 C7          1.0252    5.7837    1.8995 C.2     1  LIG1        0.0000
      8 C8          0.1039    5.2394    1.0542 C.2     1  LIG1        0.0000
      9 N9          0.3112    3.8939    0.9733 N.pl3   1  LIG1        0.0000
     10 H          -0.2076    3.2356    0.4278 H       1  LIG1        0.0000
     11 H           0.0377    1.1925    1.1925 H       1  LIG1        0.0000
     12 H           1.1925    0.0377    1.1925 H       1  LIG1        0.0000
     13 H           1.1149    6.7484    2.1469 H       1  LIG1        0.0000
     14 H          -0.6099    5.7460    0.5708 H       1  LIG1        0.0000
@<TRIPOS>BOND
     1     1     2    3
     2     2     3    1
     3     3     4    1
     4     4     5    1
     5     5     6    2
     6     6     7    1
     7     7     8    2
     8     8     9    1
     9     9     5    1
    10     9    10    1
    11     3    11    1
    12     3    12    1
    13     7    13    1
    14     8    14    1
