@<TRIPOS>MOLECULE
*****
 14 14 0 0 0
SMALL
USER_CHARGES

@<TRIPOS>ATOM
      1 N1          1.5119    1.5119   -1.5596 N.1     1  LIG1        0.0000
      2 C2          1.2925    1.2925   -0.4626 C.1     1  LIG1        0.0000
      3 C3          1.0000    1.0000    1.0000 C.3     1  LIG1        0.0000
      4 S4          2.0450    2.0450    2.0450 S.3     1  LIG1        0.0000
      5 C5          1.5705    1.5705    3.6519 C.2     1  LIG1        0.0000
      6 N6          2.0555    2.0607    4.7765 N.2     1  LIG1        0.0000
      7 C7          1.4377    1.4431    5.8276 C.2     1  LIG1        0.0000
      8 C8          0.5558    0.5543    5.2874 C.2     1  LIG1        0.0000
      9 N9          0.6255    0.6255    3.9273 N.pl3   1  LIG1        0.0000
     10 H           0.0936    0.0945    3.2677 H       1  LIG1        0.0000
     11 H           0.0377    1.1925    1.1925 H       1  LIG1        0.0000
     12 H           1.1925    0.0377    1.1925 H       1  LIG1        0.0000
     13 H           1.6001    1.6100    6.8000 H       1  LIG1        0.0000
     14 H          -0.0462   -0.0529    5.8060 H       1  LIG1        0.0000
@<TRIPOS>BOND
     1     1     2    3
     2     2     3    1
     3     3     4    1
     4     4     5    1
     5     5     6    2
     6     6     7    1
     7     7     8    2
     8     8     9    1
     9     9     5    1
    10     9    10    1
    11     3    11    1
    12     3    12    1
    13     7    13    1
    14     8    14    1
