@<TRIPOS>MOLECULE

  33   33
SMALL
USER_CHARGES
@<TRIPOS>ATOM
   1 C1           5.3594     3.3117     1.0000 C.3          1    LIG   0.0000
   2 C2           4.5994     1.9953     1.0000 C.3          1    LIG   0.0000
   3 C3           4.9666     1.1983     2.2411 C.3          1    LIG   0.0000
   4 C4           3.1050     2.2731     1.0000 C.3          1    LIG   0.0000
   5 N5           2.3700     1.0000     1.0000 N.pl3        1    LIG   0.0000
   6 N6           1.0000     1.0000     1.0000 N.2          1    LIG   0.0000
   7 C7           0.4916    -0.1419     1.0000 C.2          1    LIG   0.0000
   8 C8           1.3440    -1.3152     1.0000 C.ar         1    LIG   0.0000
   9 C9           2.2368    -1.5150     2.0476 C.ar         1    LIG   0.0000
  10 C10          3.0570    -2.6386     2.0574 C.ar         1    LIG   0.0000
  11 C11          2.9708    -3.5504     1.0104 C.ar         1    LIG   0.0000
  12 S12          3.9940    -4.9578     1.0170 S.3          1    LIG   0.0000
  13 C13          3.5153    -5.8011    -0.5113 C.3          1    LIG   0.0000
  14 F14          4.2278    -6.9163    -0.6441 F            1    LIG   0.0000
  15 F15          2.2213    -6.1047    -0.4636 F            1    LIG   0.0000
  16 C16          2.0809    -3.3596    -0.0418 C.ar         1    LIG   0.0000
  17 C17          1.2646    -2.2329    -0.0428 C.ar         1    LIG   0.0000
  18 H            6.3426     3.1289     1.0000 H            1    LIG   0.0000
  19 H            5.1178     3.8360     0.1835 H            1    LIG   0.0000
  20 H            5.1178     3.8360     1.8165 H            1    LIG   0.0000
  21 H            4.8410     1.4709     0.1835 H            1    LIG   0.0000
  22 H            5.9498     1.0155     2.2411 H            1    LIG   0.0000
  23 H            4.7250     1.7226     3.0576 H            1    LIG   0.0000
  24 H            4.4666     0.3322     2.2411 H            1    LIG   0.0000
  25 H            2.8634     2.7974     1.8165 H            1    LIG   0.0000
  26 H            2.8634     2.7974     0.1835 H            1    LIG   0.0000
  27 H            2.8700     0.1340     1.0000 H            1    LIG   0.0000
  28 H           -0.5029    -0.2465     1.0000 H            1    LIG   0.0000
  29 H            2.2891    -0.8511     2.7935 H            1    LIG   0.0000
  30 H            3.7006    -2.7890     2.8079 H            1    LIG   0.0000
  31 H            3.6881    -5.2003    -1.2918 H            1    LIG   0.0000
  32 H            2.0286    -4.0236    -0.7877 H            1    LIG   0.0000
  33 H            0.6207    -2.0826    -0.7930 H            1    LIG   0.0000
@<TRIPOS>BOND
   1        1        2 1
   2        2        3 1
   3        2        4 1
   4        4        5 1
   5        5        6 1
   6        6        7 2
   7        7        8 1
   8        8        9 ar
   9        9       10 ar
  10       10       11 ar
  11       11       12 1
  12       12       13 1
  13       13       14 1
  14       13       15 1
  15       11       16 ar
  16       16       17 ar
  17       17        8 ar
  18        1       18 1
  19        1       19 1
  20        1       20 1
  21        2       21 1
  22        3       22 1
  23        3       23 1
  24        3       24 1
  25        4       25 1
  26        4       26 1
  27        5       27 1
  28        7       28 1
  29        9       29 1
  30       10       30 1
  31       13       31 1
  32       16       32 1
  33       17       33 1

@<TRIPOS>MOLECULE

  33   33
SMALL
USER_CHARGES
@<TRIPOS>ATOM
   1 C1           5.3594     3.3117     1.0000 C.3          1    LIG   0.0000
   2 C2           4.5994     1.9953     1.0000 C.3          1    LIG   0.0000
   3 C3           4.9666     1.1983     2.2411 C.3          1    LIG   0.0000
   4 C4           3.1050     2.2731     1.0000 C.3          1    LIG   0.0000
   5 N5           2.3700     1.0000     1.0000 N.pl3        1    LIG   0.0000
   6 N6           1.0000     1.0000     1.0000 N.2          1    LIG   0.0000
   7 C7           0.4916    -0.1419     1.0000 C.2          1    LIG   0.0000
   8 C8           1.3440    -1.3152     1.0000 C.ar         1    LIG   0.0000
   9 C9           2.2368    -1.5150     2.0476 C.ar         1    LIG   0.0000
  10 C10          3.0570    -2.6386     2.0574 C.ar         1    LIG   0.0000
  11 C11          2.9708    -3.5504     1.0104 C.ar         1    LIG   0.0000
  12 S12          3.9940    -4.9578     1.0170 S.3          1    LIG   0.0000
  13 C13          4.9370    -4.7531     2.5483 C.3          1    LIG   0.0000
  14 F14          5.7775    -5.7739     2.6911 F            1    LIG   0.0000
  15 F15          5.6251    -3.6161     2.4966 F            1    LIG   0.0000
  16 C16          2.0809    -3.3596    -0.0418 C.ar         1    LIG   0.0000
  17 C17          1.2646    -2.2329    -0.0428 C.ar         1    LIG   0.0000
  18 H            6.3426     3.1289     1.0000 H            1    LIG   0.0000
  19 H            5.1178     3.8360     0.1835 H            1    LIG   0.0000
  20 H            5.1178     3.8360     1.8165 H            1    LIG   0.0000
  21 H            4.8410     1.4709     0.1835 H            1    LIG   0.0000
  22 H            5.9498     1.0155     2.2411 H            1    LIG   0.0000
  23 H            4.7250     1.7226     3.0576 H            1    LIG   0.0000
  24 H            4.4666     0.3322     2.2411 H            1    LIG   0.0000
  25 H            2.8634     2.7974     1.8165 H            1    LIG   0.0000
  26 H            2.8634     2.7974     0.1835 H            1    LIG   0.0000
  27 H            2.8700     0.1340     1.0000 H            1    LIG   0.0000
  28 H           -0.5029    -0.2465     1.0000 H            1    LIG   0.0000
  29 H            2.2891    -0.8511     2.7935 H            1    LIG   0.0000
  30 H            3.7006    -2.7890     2.8079 H            1    LIG   0.0000
  31 H            4.3087    -4.7274     3.3258 H            1    LIG   0.0000
  32 H            2.0286    -4.0236    -0.7877 H            1    LIG   0.0000
  33 H            0.6207    -2.0826    -0.7930 H            1    LIG   0.0000
@<TRIPOS>BOND
   1        1        2 1
   2        2        3 1
   3        2        4 1
   4        4        5 1
   5        5        6 1
   6        6        7 2
   7        7        8 1
   8        8        9 ar
   9        9       10 ar
  10       10       11 ar
  11       11       12 1
  12       12       13 1
  13       13       14 1
  14       13       15 1
  15       11       16 ar
  16       16       17 ar
  17       17        8 ar
  18        1       18 1
  19        1       19 1
  20        1       20 1
  21        2       21 1
  22        3       22 1
  23        3       23 1
  24        3       24 1
  25        4       25 1
  26        4       26 1
  27        5       27 1
  28        7       28 1
  29        9       29 1
  30       10       30 1
  31       13       31 1
  32       16       32 1
  33       17       33 1

@<TRIPOS>MOLECULE

  33   33
SMALL
USER_CHARGES
@<TRIPOS>ATOM
   1 C1           5.3594     3.3117     1.0000 C.3          1    LIG   0.0000
   2 C2           4.5994     1.9953     1.0000 C.3          1    LIG   0.0000
   3 C3           4.9666     1.1983     2.2411 C.3          1    LIG   0.0000
   4 C4           3.1050     2.2731     1.0000 C.3          1    LIG   0.0000
   5 N5           2.3700     1.0000     1.0000 N.pl3        1    LIG   0.0000
   6 N6           1.0000     1.0000     1.0000 N.2          1    LIG   0.0000
   7 C7           0.4916    -0.1419     1.0000 C.2          1    LIG   0.0000
   8 C8           1.3440    -1.3152     1.0000 C.ar         1    LIG   0.0000
   9 C9           2.2368    -1.5150    -0.0476 C.ar         1    LIG   0.0000
  10 C10          3.0601    -2.6364    -0.0552 C.ar         1    LIG   0.0000
  11 C11          2.9753    -3.5471     0.9929 C.ar         1    LIG   0.0000
  12 S12          4.0024    -4.9516     0.9891 S.3          1    LIG   0.0000
  13 C13          3.5245    -5.7944     2.5179 C.3          1    LIG   0.0000
  14 F14          4.2399    -6.9075     2.6528 F            1    LIG   0.0000
  15 F15          3.7509    -4.9934     3.5552 F            1    LIG   0.0000
  16 C16          2.0858    -3.3561     2.0453 C.ar         1    LIG   0.0000
  17 C17          1.2666    -2.2315     2.0441 C.ar         1    LIG   0.0000
  18 H            6.3426     3.1289     1.0000 H            1    LIG   0.0000
  19 H            5.1178     3.8360     0.1835 H            1    LIG   0.0000
  20 H            5.1178     3.8360     1.8165 H            1    LIG   0.0000
  21 H            4.8410     1.4709     0.1835 H            1    LIG   0.0000
  22 H            5.9498     1.0155     2.2411 H            1    LIG   0.0000
  23 H            4.7250     1.7226     3.0576 H            1    LIG   0.0000
  24 H            4.4666     0.3322     2.2411 H            1    LIG   0.0000
  25 H            2.8634     2.7974     1.8165 H            1    LIG   0.0000
  26 H            2.8634     2.7974     0.1835 H            1    LIG   0.0000
  27 H            2.8700     0.1340     1.0000 H            1    LIG   0.0000
  28 H           -0.5029    -0.2465     1.0000 H            1    LIG   0.0000
  29 H            2.2868    -0.8527    -0.7951 H            1    LIG   0.0000
  30 H            3.7049    -2.7859    -0.8048 H            1    LIG   0.0000
  31 H            2.5522    -6.0255     2.4812 H            1    LIG   0.0000
  32 H            2.0358    -4.0184     2.7929 H            1    LIG   0.0000
  33 H            0.6220    -2.0817     2.7939 H            1    LIG   0.0000
@<TRIPOS>BOND
   1        1        2 1
   2        2        3 1
   3        2        4 1
   4        4        5 1
   5        5        6 1
   6        6        7 2
   7        7        8 1
   8        8        9 ar
   9        9       10 ar
  10       10       11 ar
  11       11       12 1
  12       12       13 1
  13       13       14 1
  14       13       15 1
  15       11       16 ar
  16       16       17 ar
  17       17        8 ar
  18        1       18 1
  19        1       19 1
  20        1       20 1
  21        2       21 1
  22        3       22 1
  23        3       23 1
  24        3       24 1
  25        4       25 1
  26        4       26 1
  27        5       27 1
  28        7       28 1
  29        9       29 1
  30       10       30 1
  31       13       31 1
  32       16       32 1
  33       17       33 1

@<TRIPOS>MOLECULE

  33   33
SMALL
USER_CHARGES
@<TRIPOS>ATOM
   1 C1           5.3594     3.3117     1.0000 C.3          1    LIG   0.0000
   2 C2           4.5994     1.9953     1.0000 C.3          1    LIG   0.0000
   3 C3           4.9666     1.1983     2.2411 C.3          1    LIG   0.0000
   4 C4           3.1050     2.2731     1.0000 C.3          1    LIG   0.0000
   5 N5           2.3700     1.0000     1.0000 N.pl3        1    LIG   0.0000
   6 N6           1.0000     1.0000     1.0000 N.2          1    LIG   0.0000
   7 C7           0.4916    -0.1419     1.0000 C.2          1    LIG   0.0000
   8 C8           1.3440    -1.3152     1.0000 C.ar         1    LIG   0.0000
   9 C9           2.2368    -1.5150    -0.0476 C.ar         1    LIG   0.0000
  10 C10          3.0601    -2.6364    -0.0552 C.ar         1    LIG   0.0000
  11 C11          2.9753    -3.5471     0.9929 C.ar         1    LIG   0.0000
  12 S12          4.0024    -4.9516     0.9891 S.3          1    LIG   0.0000
  13 C13          4.9465    -4.7462    -0.5415 C.3          1    LIG   0.0000
  14 F14          5.7901    -5.7648    -0.6822 F            1    LIG   0.0000
  15 F15          4.1119    -4.7156    -1.5765 F            1    LIG   0.0000
  16 C16          2.0858    -3.3561     2.0453 C.ar         1    LIG   0.0000
  17 C17          1.2666    -2.2315     2.0441 C.ar         1    LIG   0.0000
  18 H            6.3426     3.1289     1.0000 H            1    LIG   0.0000
  19 H            5.1178     3.8360     0.1835 H            1    LIG   0.0000
  20 H            5.1178     3.8360     1.8165 H            1    LIG   0.0000
  21 H            4.8410     1.4709     0.1835 H            1    LIG   0.0000
  22 H            5.9498     1.0155     2.2411 H            1    LIG   0.0000
  23 H            4.7250     1.7226     3.0576 H            1    LIG   0.0000
  24 H            4.4666     0.3322     2.2411 H            1    LIG   0.0000
  25 H            2.8634     2.7974     1.8165 H            1    LIG   0.0000
  26 H            2.8634     2.7974     0.1835 H            1    LIG   0.0000
  27 H            2.8700     0.1340     1.0000 H            1    LIG   0.0000
  28 H           -0.5029    -0.2465     1.0000 H            1    LIG   0.0000
  29 H            2.2868    -0.8527    -0.7951 H            1    LIG   0.0000
  30 H            3.7049    -2.7859    -0.8048 H            1    LIG   0.0000
  31 H            5.4615    -3.8898    -0.5031 H            1    LIG   0.0000
  32 H            2.0358    -4.0184     2.7929 H            1    LIG   0.0000
  33 H            0.6220    -2.0817     2.7939 H            1    LIG   0.0000
@<TRIPOS>BOND
   1        1        2 1
   2        2        3 1
   3        2        4 1
   4        4        5 1
   5        5        6 1
   6        6        7 2
   7        7        8 1
   8        8        9 ar
   9        9       10 ar
  10       10       11 ar
  11       11       12 1
  12       12       13 1
  13       13       14 1
  14       13       15 1
  15       11       16 ar
  16       16       17 ar
  17       17        8 ar
  18        1       18 1
  19        1       19 1
  20        1       20 1
  21        2       21 1
  22        3       22 1
  23        3       23 1
  24        3       24 1
  25        4       25 1
  26        4       26 1
  27        5       27 1
  28        7       28 1
  29        9       29 1
  30       10       30 1
  31       13       31 1
  32       16       32 1
  33       17       33 1

@<TRIPOS>MOLECULE

  33   33
SMALL
USER_CHARGES
@<TRIPOS>ATOM
   1 C1           5.3594     3.3117     1.0000 C.3          1    LIG   0.0000
   2 C2           4.5994     1.9953     1.0000 C.3          1    LIG   0.0000
   3 C3           4.9666     1.1983     2.2411 C.3          1    LIG   0.0000
   4 C4           3.1050     2.2731     1.0000 C.3          1    LIG   0.0000
   5 N5           2.3700     1.0000     1.0000 N.pl3        1    LIG   0.0000
   6 N6           1.0000     1.0000     1.0000 N.2          1    LIG   0.0000
   7 C7           0.4916    -0.1419     1.0000 C.2          1    LIG   0.0000
   8 C8           1.3440    -1.3152     1.0000 C.ar         1    LIG   0.0000
   9 C9           2.2368    -1.5150    -0.0476 C.ar         1    LIG   0.0000
  10 C10          3.0601    -2.6364    -0.0552 C.ar         1    LIG   0.0000
  11 C11          2.9753    -3.5471     0.9929 C.ar         1    LIG   0.0000
  12 S12          4.0024    -4.9516     0.9891 S.3          1    LIG   0.0000
  13 C13          2.9997    -6.1717     0.1049 C.3          1    LIG   0.0000
  14 F14          3.6678    -7.3188     0.0224 F            1    LIG   0.0000
  15 F15          1.8600    -6.3687     0.7617 F            1    LIG   0.0000
  16 C16          2.0858    -3.3561     2.0453 C.ar         1    LIG   0.0000
  17 C17          1.2666    -2.2315     2.0441 C.ar         1    LIG   0.0000
  18 H            6.3426     3.1289     1.0000 H            1    LIG   0.0000
  19 H            5.1178     3.8360     0.1835 H            1    LIG   0.0000
  20 H            5.1178     3.8360     1.8165 H            1    LIG   0.0000
  21 H            4.8410     1.4709     0.1835 H            1    LIG   0.0000
  22 H            5.9498     1.0155     2.2411 H            1    LIG   0.0000
  23 H            4.7250     1.7226     3.0576 H            1    LIG   0.0000
  24 H            4.4666     0.3322     2.2411 H            1    LIG   0.0000
  25 H            2.8634     2.7974     1.8165 H            1    LIG   0.0000
  26 H            2.8634     2.7974     0.1835 H            1    LIG   0.0000
  27 H            2.8700     0.1340     1.0000 H            1    LIG   0.0000
  28 H           -0.5029    -0.2465     1.0000 H            1    LIG   0.0000
  29 H            2.2868    -0.8527    -0.7951 H            1    LIG   0.0000
  30 H            3.7049    -2.7859    -0.8048 H            1    LIG   0.0000
  31 H            2.8001    -5.8353    -0.8155 H            1    LIG   0.0000
  32 H            2.0358    -4.0184     2.7929 H            1    LIG   0.0000
  33 H            0.6220    -2.0817     2.7939 H            1    LIG   0.0000
@<TRIPOS>BOND
   1        1        2 1
   2        2        3 1
   3        2        4 1
   4        4        5 1
   5        5        6 1
   6        6        7 2
   7        7        8 1
   8        8        9 ar
   9        9       10 ar
  10       10       11 ar
  11       11       12 1
  12       12       13 1
  13       13       14 1
  14       13       15 1
  15       11       16 ar
  16       16       17 ar
  17       17        8 ar
  18        1       18 1
  19        1       19 1
  20        1       20 1
  21        2       21 1
  22        3       22 1
  23        3       23 1
  24        3       24 1
  25        4       25 1
  26        4       26 1
  27        5       27 1
  28        7       28 1
  29        9       29 1
  30       10       30 1
  31       13       31 1
  32       16       32 1
  33       17       33 1

@<TRIPOS>MOLECULE

  33   33
SMALL
USER_CHARGES
@<TRIPOS>ATOM
   1 C1           4.1183     4.0282     2.4331 C.3          1    LIG   0.0000
   2 C2           3.3583     2.7118     2.4331 C.3          1    LIG   0.0000
   3 C3           2.0302     2.8936     3.1496 C.3          1    LIG   0.0000
   4 C4           3.1050     2.2731     1.0000 C.3          1    LIG   0.0000
   5 N5           2.3700     1.0000     1.0000 N.pl3        1    LIG   0.0000
   6 N6           1.0000     1.0000     1.0000 N.2          1    LIG   0.0000
   7 C7           0.4916    -0.1419     1.0000 C.2          1    LIG   0.0000
   8 C8           1.3440    -1.3152     1.0000 C.ar         1    LIG   0.0000
   9 C9           2.2368    -1.5150     2.0476 C.ar         1    LIG   0.0000
  10 C10          3.0570    -2.6386     2.0574 C.ar         1    LIG   0.0000
  11 C11          2.9708    -3.5504     1.0104 C.ar         1    LIG   0.0000
  12 S12          3.9940    -4.9578     1.0170 S.3          1    LIG   0.0000
  13 C13          5.4655    -4.3802     0.1354 C.3          1    LIG   0.0000
  14 F14          6.3536    -5.3674     0.0609 F            1    LIG   0.0000
  15 F15          5.1251    -3.9966    -1.0917 F            1    LIG   0.0000
  16 C16          2.0809    -3.3596    -0.0418 C.ar         1    LIG   0.0000
  17 C17          1.2646    -2.2329    -0.0428 C.ar         1    LIG   0.0000
  18 H            4.2850     4.3169     3.3759 H            1    LIG   0.0000
  19 H            4.9921     3.9086     1.9617 H            1    LIG   0.0000
  20 H            3.5779     4.7251     1.9617 H            1    LIG   0.0000
  21 H            3.8988     2.0149     2.9045 H            1    LIG   0.0000
  22 H            2.1969     3.1823     4.0924 H            1    LIG   0.0000
  23 H            1.4898     3.5905     2.6782 H            1    LIG   0.0000
  24 H            1.5302     2.0276     3.1496 H            1    LIG   0.0000
  25 H            2.5646     2.9700     0.5286 H            1    LIG   0.0000
  26 H            3.9788     2.1535     0.5286 H            1    LIG   0.0000
  27 H            2.8700     0.1340     1.0000 H            1    LIG   0.0000
  28 H           -0.5029    -0.2465     1.0000 H            1    LIG   0.0000
  29 H            2.2891    -0.8511     2.7935 H            1    LIG   0.0000
  30 H            3.7006    -2.7890     2.8079 H            1    LIG   0.0000
  31 H            5.8667    -3.6073     0.6270 H            1    LIG   0.0000
  32 H            2.0286    -4.0236    -0.7877 H            1    LIG   0.0000
  33 H            0.6207    -2.0826    -0.7930 H            1    LIG   0.0000
@<TRIPOS>BOND
   1        1        2 1
   2        2        3 1
   3        2        4 1
   4        4        5 1
   5        5        6 1
   6        6        7 2
   7        7        8 1
   8        8        9 ar
   9        9       10 ar
  10       10       11 ar
  11       11       12 1
  12       12       13 1
  13       13       14 1
  14       13       15 1
  15       11       16 ar
  16       16       17 ar
  17       17        8 ar
  18        1       18 1
  19        1       19 1
  20        1       20 1
  21        2       21 1
  22        3       22 1
  23        3       23 1
  24        3       24 1
  25        4       25 1
  26        4       26 1
  27        5       27 1
  28        7       28 1
  29        9       29 1
  30       10       30 1
  31       13       31 1
  32       16       32 1
  33       17       33 1

@<TRIPOS>MOLECULE

  33   33
SMALL
USER_CHARGES
@<TRIPOS>ATOM
   1 C1           4.1183     4.0282     2.4331 C.3          1    LIG   0.0000
   2 C2           3.3583     2.7118     2.4331 C.3          1    LIG   0.0000
   3 C3           2.0302     2.8936     3.1496 C.3          1    LIG   0.0000
   4 C4           3.1050     2.2731     1.0000 C.3          1    LIG   0.0000
   5 N5           2.3700     1.0000     1.0000 N.pl3        1    LIG   0.0000
   6 N6           1.0000     1.0000     1.0000 N.2          1    LIG   0.0000
   7 C7           0.4916    -0.1419     1.0000 C.2          1    LIG   0.0000
   8 C8           1.3440    -1.3152     1.0000 C.ar         1    LIG   0.0000
   9 C9           2.2368    -1.5150    -0.0476 C.ar         1    LIG   0.0000
  10 C10          3.0601    -2.6364    -0.0552 C.ar         1    LIG   0.0000
  11 C11          2.9753    -3.5471     0.9929 C.ar         1    LIG   0.0000
  12 S12          4.0024    -4.9516     0.9891 S.3          1    LIG   0.0000
  13 C13          5.4714    -4.3689     1.8715 C.3          1    LIG   0.0000
  14 F14          6.3622    -5.3535     1.9482 F            1    LIG   0.0000
  15 F15          6.0028    -3.3402     1.2170 F            1    LIG   0.0000
  16 C16          2.0858    -3.3561     2.0453 C.ar         1    LIG   0.0000
  17 C17          1.2666    -2.2315     2.0441 C.ar         1    LIG   0.0000
  18 H            4.2850     4.3169     3.3759 H            1    LIG   0.0000
  19 H            4.9921     3.9086     1.9617 H            1    LIG   0.0000
  20 H            3.5779     4.7251     1.9617 H            1    LIG   0.0000
  21 H            3.8988     2.0149     2.9045 H            1    LIG   0.0000
  22 H            2.1969     3.1823     4.0924 H            1    LIG   0.0000
  23 H            1.4898     3.5905     2.6782 H            1    LIG   0.0000
  24 H            1.5302     2.0276     3.1496 H            1    LIG   0.0000
  25 H            2.5646     2.9700     0.5286 H            1    LIG   0.0000
  26 H            3.9788     2.1535     0.5286 H            1    LIG   0.0000
  27 H            2.8700     0.1340     1.0000 H            1    LIG   0.0000
  28 H           -0.5029    -0.2465     1.0000 H            1    LIG   0.0000
  29 H            2.2868    -0.8527    -0.7951 H            1    LIG   0.0000
  30 H            3.7049    -2.7859    -0.8048 H            1    LIG   0.0000
  31 H            5.2136    -4.0800     2.7935 H            1    LIG   0.0000
  32 H            2.0358    -4.0184     2.7929 H            1    LIG   0.0000
  33 H            0.6220    -2.0817     2.7939 H            1    LIG   0.0000
@<TRIPOS>BOND
   1        1        2 1
   2        2        3 1
   3        2        4 1
   4        4        5 1
   5        5        6 1
   6        6        7 2
   7        7        8 1
   8        8        9 ar
   9        9       10 ar
  10       10       11 ar
  11       11       12 1
  12       12       13 1
  13       13       14 1
  14       13       15 1
  15       11       16 ar
  16       16       17 ar
  17       17        8 ar
  18        1       18 1
  19        1       19 1
  20        1       20 1
  21        2       21 1
  22        3       22 1
  23        3       23 1
  24        3       24 1
  25        4       25 1
  26        4       26 1
  27        5       27 1
  28        7       28 1
  29        9       29 1
  30       10       30 1
  31       13       31 1
  32       16       32 1
  33       17       33 1

@<TRIPOS>MOLECULE

  33   33
SMALL
USER_CHARGES
@<TRIPOS>ATOM
   1 C1           4.1183     4.0282    -0.4331 C.3          1    LIG   0.0000
   2 C2           3.3583     2.7118    -0.4331 C.3          1    LIG   0.0000
   3 C3           4.1798     1.6525    -1.1496 C.3          1    LIG   0.0000
   4 C4           3.1050     2.2731     1.0000 C.3          1    LIG   0.0000
   5 N5           2.3700     1.0000     1.0000 N.pl3        1    LIG   0.0000
   6 N6           1.0000     1.0000     1.0000 N.2          1    LIG   0.0000
   7 C7           0.4916    -0.1419     1.0000 C.2          1    LIG   0.0000
   8 C8           1.3440    -1.3152     1.0000 C.ar         1    LIG   0.0000
   9 C9           2.2368    -1.5150     2.0476 C.ar         1    LIG   0.0000
  10 C10          3.0570    -2.6386     2.0574 C.ar         1    LIG   0.0000
  11 C11          2.9708    -3.5504     1.0104 C.ar         1    LIG   0.0000
  12 S12          3.9940    -4.9578     1.0170 S.3          1    LIG   0.0000
  13 C13          3.5153    -5.8011    -0.5113 C.3          1    LIG   0.0000
  14 F14          2.2876    -6.2952    -0.3792 F            1    LIG   0.0000
  15 F15          3.5387    -4.9359    -1.5212 F            1    LIG   0.0000
  16 C16          2.0809    -3.3596    -0.0418 C.ar         1    LIG   0.0000
  17 C17          1.2646    -2.2329    -0.0428 C.ar         1    LIG   0.0000
  18 H            4.2850     4.3169    -1.3759 H            1    LIG   0.0000
  19 H            3.5779     4.7251     0.0383 H            1    LIG   0.0000
  20 H            4.9921     3.9086     0.0383 H            1    LIG   0.0000
  21 H            2.4846     2.8314    -0.9045 H            1    LIG   0.0000
  22 H            4.3465     1.9412    -2.0924 H            1    LIG   0.0000
  23 H            5.0536     1.5329    -0.6782 H            1    LIG   0.0000
  24 H            3.6798     0.7865    -1.1496 H            1    LIG   0.0000
  25 H            3.9788     2.1535     1.4714 H            1    LIG   0.0000
  26 H            2.5646     2.9700     1.4714 H            1    LIG   0.0000
  27 H            2.8700     0.1340     1.0000 H            1    LIG   0.0000
  28 H           -0.5029    -0.2465     1.0000 H            1    LIG   0.0000
  29 H            2.2891    -0.8511     2.7935 H            1    LIG   0.0000
  30 H            3.7006    -2.7890     2.8079 H            1    LIG   0.0000
  31 H            4.1564    -6.5461    -0.6958 H            1    LIG   0.0000
  32 H            2.0286    -4.0236    -0.7877 H            1    LIG   0.0000
  33 H            0.6207    -2.0826    -0.7930 H            1    LIG   0.0000
@<TRIPOS>BOND
   1        1        2 1
   2        2        3 1
   3        2        4 1
   4        4        5 1
   5        5        6 1
   6        6        7 2
   7        7        8 1
   8        8        9 ar
   9        9       10 ar
  10       10       11 ar
  11       11       12 1
  12       12       13 1
  13       13       14 1
  14       13       15 1
  15       11       16 ar
  16       16       17 ar
  17       17        8 ar
  18        1       18 1
  19        1       19 1
  20        1       20 1
  21        2       21 1
  22        3       22 1
  23        3       23 1
  24        3       24 1
  25        4       25 1
  26        4       26 1
  27        5       27 1
  28        7       28 1
  29        9       29 1
  30       10       30 1
  31       13       31 1
  32       16       32 1
  33       17       33 1

@<TRIPOS>MOLECULE

  33   33
SMALL
USER_CHARGES
@<TRIPOS>ATOM
   1 C1           4.1183     4.0282    -0.4331 C.3          1    LIG   0.0000
   2 C2           3.3583     2.7118    -0.4331 C.3          1    LIG   0.0000
   3 C3           4.1798     1.6525    -1.1496 C.3          1    LIG   0.0000
   4 C4           3.1050     2.2731     1.0000 C.3          1    LIG   0.0000
   5 N5           2.3700     1.0000     1.0000 N.pl3        1    LIG   0.0000
   6 N6           1.0000     1.0000     1.0000 N.2          1    LIG   0.0000
   7 C7           0.4916    -0.1419     1.0000 C.2          1    LIG   0.0000
   8 C8           1.3440    -1.3152     1.0000 C.ar         1    LIG   0.0000
   9 C9           2.2368    -1.5150     2.0476 C.ar         1    LIG   0.0000
  10 C10          3.0570    -2.6386     2.0574 C.ar         1    LIG   0.0000
  11 C11          2.9708    -3.5504     1.0104 C.ar         1    LIG   0.0000
  12 S12          3.9940    -4.9578     1.0170 S.3          1    LIG   0.0000
  13 C13          4.9370    -4.7531     2.5483 C.3          1    LIG   0.0000
  14 F14          5.7862    -3.7384     2.4137 F            1    LIG   0.0000
  15 F15          4.1022    -4.5023     3.5529 F            1    LIG   0.0000
  16 C16          2.0809    -3.3596    -0.0418 C.ar         1    LIG   0.0000
  17 C17          1.2646    -2.2329    -0.0428 C.ar         1    LIG   0.0000
  18 H            4.2850     4.3169    -1.3759 H            1    LIG   0.0000
  19 H            3.5779     4.7251     0.0383 H            1    LIG   0.0000
  20 H            4.9921     3.9086     0.0383 H            1    LIG   0.0000
  21 H            2.4846     2.8314    -0.9045 H            1    LIG   0.0000
  22 H            4.3465     1.9412    -2.0924 H            1    LIG   0.0000
  23 H            5.0536     1.5329    -0.6782 H            1    LIG   0.0000
  24 H            3.6798     0.7865    -1.1496 H            1    LIG   0.0000
  25 H            3.9788     2.1535     1.4714 H            1    LIG   0.0000
  26 H            2.5646     2.9700     1.4714 H            1    LIG   0.0000
  27 H            2.8700     0.1340     1.0000 H            1    LIG   0.0000
  28 H           -0.5029    -0.2465     1.0000 H            1    LIG   0.0000
  29 H            2.2891    -0.8511     2.7935 H            1    LIG   0.0000
  30 H            3.7006    -2.7890     2.8079 H            1    LIG   0.0000
  31 H            5.4471    -5.5915     2.7402 H            1    LIG   0.0000
  32 H            2.0286    -4.0236    -0.7877 H            1    LIG   0.0000
  33 H            0.6207    -2.0826    -0.7930 H            1    LIG   0.0000
@<TRIPOS>BOND
   1        1        2 1
   2        2        3 1
   3        2        4 1
   4        4        5 1
   5        5        6 1
   6        6        7 2
   7        7        8 1
   8        8        9 ar
   9        9       10 ar
  10       10       11 ar
  11       11       12 1
  12       12       13 1
  13       13       14 1
  14       13       15 1
  15       11       16 ar
  16       16       17 ar
  17       17        8 ar
  18        1       18 1
  19        1       19 1
  20        1       20 1
  21        2       21 1
  22        3       22 1
  23        3       23 1
  24        3       24 1
  25        4       25 1
  26        4       26 1
  27        5       27 1
  28        7       28 1
  29        9       29 1
  30       10       30 1
  31       13       31 1
  32       16       32 1
  33       17       33 1

@<TRIPOS>MOLECULE

  33   33
SMALL
USER_CHARGES
@<TRIPOS>ATOM
   1 C1           4.1183     4.0282    -0.4331 C.3          1    LIG   0.0000
   2 C2           3.3583     2.7118    -0.4331 C.3          1    LIG   0.0000
   3 C3           4.1798     1.6525    -1.1496 C.3          1    LIG   0.0000
   4 C4           3.1050     2.2731     1.0000 C.3          1    LIG   0.0000
   5 N5           2.3700     1.0000     1.0000 N.pl3        1    LIG   0.0000
   6 N6           1.0000     1.0000     1.0000 N.2          1    LIG   0.0000
   7 C7           0.4916    -0.1419     1.0000 C.2          1    LIG   0.0000
   8 C8           1.3440    -1.3152     1.0000 C.ar         1    LIG   0.0000
   9 C9           2.2368    -1.5150     2.0476 C.ar         1    LIG   0.0000
  10 C10          3.0570    -2.6386     2.0574 C.ar         1    LIG   0.0000
  11 C11          2.9708    -3.5504     1.0104 C.ar         1    LIG   0.0000
  12 S12          3.9940    -4.9578     1.0170 S.3          1    LIG   0.0000
  13 C13          2.9868    -6.1740     1.9016 C.3          1    LIG   0.0000
  14 F14          2.9025    -5.8313     3.1839 F            1    LIG   0.0000
  15 F15          1.7677    -6.2099     1.3712 F            1    LIG   0.0000
  16 C16          2.0809    -3.3596    -0.0418 C.ar         1    LIG   0.0000
  17 C17          1.2646    -2.2329    -0.0428 C.ar         1    LIG   0.0000
  18 H            4.2850     4.3169    -1.3759 H            1    LIG   0.0000
  19 H            3.5779     4.7251     0.0383 H            1    LIG   0.0000
  20 H            4.9921     3.9086     0.0383 H            1    LIG   0.0000
  21 H            2.4846     2.8314    -0.9045 H            1    LIG   0.0000
  22 H            4.3465     1.9412    -2.0924 H            1    LIG   0.0000
  23 H            5.0536     1.5329    -0.6782 H            1    LIG   0.0000
  24 H            3.6798     0.7865    -1.1496 H            1    LIG   0.0000
  25 H            3.9788     2.1535     1.4714 H            1    LIG   0.0000
  26 H            2.5646     2.9700     1.4714 H            1    LIG   0.0000
  27 H            2.8700     0.1340     1.0000 H            1    LIG   0.0000
  28 H           -0.5029    -0.2465     1.0000 H            1    LIG   0.0000
  29 H            2.2891    -0.8511     2.7935 H            1    LIG   0.0000
  30 H            3.7006    -2.7890     2.8079 H            1    LIG   0.0000
  31 H            3.4104    -7.0766     1.8249 H            1    LIG   0.0000
  32 H            2.0286    -4.0236    -0.7877 H            1    LIG   0.0000
  33 H            0.6207    -2.0826    -0.7930 H            1    LIG   0.0000
@<TRIPOS>BOND
   1        1        2 1
   2        2        3 1
   3        2        4 1
   4        4        5 1
   5        5        6 1
   6        6        7 2
   7        7        8 1
   8        8        9 ar
   9        9       10 ar
  10       10       11 ar
  11       11       12 1
  12       12       13 1
  13       13       14 1
  14       13       15 1
  15       11       16 ar
  16       16       17 ar
  17       17        8 ar
  18        1       18 1
  19        1       19 1
  20        1       20 1
  21        2       21 1
  22        3       22 1
  23        3       23 1
  24        3       24 1
  25        4       25 1
  26        4       26 1
  27        5       27 1
  28        7       28 1
  29        9       29 1
  30       10       30 1
  31       13       31 1
  32       16       32 1
  33       17       33 1

@<TRIPOS>MOLECULE

  33   33
SMALL
USER_CHARGES
@<TRIPOS>ATOM
   1 C1           4.1183     4.0282    -0.4331 C.3          1    LIG   0.0000
   2 C2           3.3583     2.7118    -0.4331 C.3          1    LIG   0.0000
   3 C3           4.1798     1.6525    -1.1496 C.3          1    LIG   0.0000
   4 C4           3.1050     2.2731     1.0000 C.3          1    LIG   0.0000
   5 N5           2.3700     1.0000     1.0000 N.pl3        1    LIG   0.0000
   6 N6           1.0000     1.0000     1.0000 N.2          1    LIG   0.0000
   7 C7           0.4916    -0.1419     1.0000 C.2          1    LIG   0.0000
   8 C8           1.3440    -1.3152     1.0000 C.ar         1    LIG   0.0000
   9 C9           2.2368    -1.5150    -0.0476 C.ar         1    LIG   0.0000
  10 C10          3.0601    -2.6364    -0.0552 C.ar         1    LIG   0.0000
  11 C11          2.9753    -3.5471     0.9929 C.ar         1    LIG   0.0000
  12 S12          4.0024    -4.9516     0.9891 S.3          1    LIG   0.0000
  13 C13          3.5245    -5.7944     2.5179 C.3          1    LIG   0.0000
  14 F14          3.9471    -5.0895     3.5635 F            1    LIG   0.0000
  15 F15          2.2002    -5.9083     2.5660 F            1    LIG   0.0000
  16 C16          2.0858    -3.3561     2.0453 C.ar         1    LIG   0.0000
  17 C17          1.2666    -2.2315     2.0441 C.ar         1    LIG   0.0000
  18 H            4.2850     4.3169    -1.3759 H            1    LIG   0.0000
  19 H            3.5779     4.7251     0.0383 H            1    LIG   0.0000
  20 H            4.9921     3.9086     0.0383 H            1    LIG   0.0000
  21 H            2.4846     2.8314    -0.9045 H            1    LIG   0.0000
  22 H            4.3465     1.9412    -2.0924 H            1    LIG   0.0000
  23 H            5.0536     1.5329    -0.6782 H            1    LIG   0.0000
  24 H            3.6798     0.7865    -1.1496 H            1    LIG   0.0000
  25 H            3.9788     2.1535     1.4714 H            1    LIG   0.0000
  26 H            2.5646     2.9700     1.4714 H            1    LIG   0.0000
  27 H            2.8700     0.1340     1.0000 H            1    LIG   0.0000
  28 H           -0.5029    -0.2465     1.0000 H            1    LIG   0.0000
  29 H            2.2868    -0.8527    -0.7951 H            1    LIG   0.0000
  30 H            3.7049    -2.7859    -0.8048 H            1    LIG   0.0000
  31 H            3.9384    -6.7045     2.5402 H            1    LIG   0.0000
  32 H            2.0358    -4.0184     2.7929 H            1    LIG   0.0000
  33 H            0.6220    -2.0817     2.7939 H            1    LIG   0.0000
@<TRIPOS>BOND
   1        1        2 1
   2        2        3 1
   3        2        4 1
   4        4        5 1
   5        5        6 1
   6        6        7 2
   7        7        8 1
   8        8        9 ar
   9        9       10 ar
  10       10       11 ar
  11       11       12 1
  12       12       13 1
  13       13       14 1
  14       13       15 1
  15       11       16 ar
  16       16       17 ar
  17       17        8 ar
  18        1       18 1
  19        1       19 1
  20        1       20 1
  21        2       21 1
  22        3       22 1
  23        3       23 1
  24        3       24 1
  25        4       25 1
  26        4       26 1
  27        5       27 1
  28        7       28 1
  29        9       29 1
  30       10       30 1
  31       13       31 1
  32       16       32 1
  33       17       33 1

@<TRIPOS>MOLECULE

  33   33
SMALL
USER_CHARGES
@<TRIPOS>ATOM
   1 C1           4.1183     4.0282    -0.4331 C.3          1    LIG   0.0000
   2 C2           3.3583     2.7118    -0.4331 C.3          1    LIG   0.0000
   3 C3           4.1798     1.6525    -1.1496 C.3          1    LIG   0.0000
   4 C4           3.1050     2.2731     1.0000 C.3          1    LIG   0.0000
   5 N5           2.3700     1.0000     1.0000 N.pl3        1    LIG   0.0000
   6 N6           1.0000     1.0000     1.0000 N.2          1    LIG   0.0000
   7 C7           0.4916    -0.1419     1.0000 C.2          1    LIG   0.0000
   8 C8           1.3440    -1.3152     1.0000 C.ar         1    LIG   0.0000
   9 C9           2.2368    -1.5150    -0.0476 C.ar         1    LIG   0.0000
  10 C10          3.0601    -2.6364    -0.0552 C.ar         1    LIG   0.0000
  11 C11          2.9753    -3.5471     0.9929 C.ar         1    LIG   0.0000
  12 S12          4.0024    -4.9516     0.9891 S.3          1    LIG   0.0000
  13 C13          4.9465    -4.7462    -0.5415 C.3          1    LIG   0.0000
  14 F14          4.1440    -4.9316    -1.5857 F            1    LIG   0.0000
  15 F15          5.4563    -3.5186    -0.5866 F            1    LIG   0.0000
  16 C16          2.0858    -3.3561     2.0453 C.ar         1    LIG   0.0000
  17 C17          1.2666    -2.2315     2.0441 C.ar         1    LIG   0.0000
  18 H            4.2850     4.3169    -1.3759 H            1    LIG   0.0000
  19 H            3.5779     4.7251     0.0383 H            1    LIG   0.0000
  20 H            4.9921     3.9086     0.0383 H            1    LIG   0.0000
  21 H            2.4846     2.8314    -0.9045 H            1    LIG   0.0000
  22 H            4.3465     1.9412    -2.0924 H            1    LIG   0.0000
  23 H            5.0536     1.5329    -0.6782 H            1    LIG   0.0000
  24 H            3.6798     0.7865    -1.1496 H            1    LIG   0.0000
  25 H            3.9788     2.1535     1.4714 H            1    LIG   0.0000
  26 H            2.5646     2.9700     1.4714 H            1    LIG   0.0000
  27 H            2.8700     0.1340     1.0000 H            1    LIG   0.0000
  28 H           -0.5029    -0.2465     1.0000 H            1    LIG   0.0000
  29 H            2.2868    -0.8527    -0.7951 H            1    LIG   0.0000
  30 H            3.7049    -2.7859    -0.8048 H            1    LIG   0.0000
  31 H            5.6883    -5.4163    -0.5681 H            1    LIG   0.0000
  32 H            2.0358    -4.0184     2.7929 H            1    LIG   0.0000
  33 H            0.6220    -2.0817     2.7939 H            1    LIG   0.0000
@<TRIPOS>BOND
   1        1        2 1
   2        2        3 1
   3        2        4 1
   4        4        5 1
   5        5        6 1
   6        6        7 2
   7        7        8 1
   8        8        9 ar
   9        9       10 ar
  10       10       11 ar
  11       11       12 1
  12       12       13 1
  13       13       14 1
  14       13       15 1
  15       11       16 ar
  16       16       17 ar
  17       17        8 ar
  18        1       18 1
  19        1       19 1
  20        1       20 1
  21        2       21 1
  22        3       22 1
  23        3       23 1
  24        3       24 1
  25        4       25 1
  26        4       26 1
  27        5       27 1
  28        7       28 1
  29        9       29 1
  30       10       30 1
  31       13       31 1
  32       16       32 1
  33       17       33 1

@<TRIPOS>MOLECULE

  33   33
SMALL
USER_CHARGES
@<TRIPOS>ATOM
   1 C1           4.1183     4.0282    -0.4331 C.3          1    LIG   0.0000
   2 C2           3.3583     2.7118    -0.4331 C.3          1    LIG   0.0000
   3 C3           4.1798     1.6525    -1.1496 C.3          1    LIG   0.0000
   4 C4           3.1050     2.2731     1.0000 C.3          1    LIG   0.0000
   5 N5           2.3700     1.0000     1.0000 N.pl3        1    LIG   0.0000
   6 N6           1.0000     1.0000     1.0000 N.2          1    LIG   0.0000
   7 C7           0.4916    -0.1419     1.0000 C.2          1    LIG   0.0000
   8 C8           1.3440    -1.3152     1.0000 C.ar         1    LIG   0.0000
   9 C9           2.2368    -1.5150    -0.0476 C.ar         1    LIG   0.0000
  10 C10          3.0601    -2.6364    -0.0552 C.ar         1    LIG   0.0000
  11 C11          2.9753    -3.5471     0.9929 C.ar         1    LIG   0.0000
  12 S12          4.0024    -4.9516     0.9891 S.3          1    LIG   0.0000
  13 C13          2.9997    -6.1717     0.1049 C.3          1    LIG   0.0000
  14 F14          1.9672    -6.5301     0.8628 F            1    LIG   0.0000
  15 F15          2.5533    -5.6404    -1.0297 F            1    LIG   0.0000
  16 C16          2.0858    -3.3561     2.0453 C.ar         1    LIG   0.0000
  17 C17          1.2666    -2.2315     2.0441 C.ar         1    LIG   0.0000
  18 H            4.2850     4.3169    -1.3759 H            1    LIG   0.0000
  19 H            3.5779     4.7251     0.0383 H            1    LIG   0.0000
  20 H            4.9921     3.9086     0.0383 H            1    LIG   0.0000
  21 H            2.4846     2.8314    -0.9045 H            1    LIG   0.0000
  22 H            4.3465     1.9412    -2.0924 H            1    LIG   0.0000
  23 H            5.0536     1.5329    -0.6782 H            1    LIG   0.0000
  24 H            3.6798     0.7865    -1.1496 H            1    LIG   0.0000
  25 H            3.9788     2.1535     1.4714 H            1    LIG   0.0000
  26 H            2.5646     2.9700     1.4714 H            1    LIG   0.0000
  27 H            2.8700     0.1340     1.0000 H            1    LIG   0.0000
  28 H           -0.5029    -0.2465     1.0000 H            1    LIG   0.0000
  29 H            2.2868    -0.8527    -0.7951 H            1    LIG   0.0000
  30 H            3.7049    -2.7859    -0.8048 H            1    LIG   0.0000
  31 H            3.5575    -6.9759    -0.1004 H            1    LIG   0.0000
  32 H            2.0358    -4.0184     2.7929 H            1    LIG   0.0000
  33 H            0.6220    -2.0817     2.7939 H            1    LIG   0.0000
@<TRIPOS>BOND
   1        1        2 1
   2        2        3 1
   3        2        4 1
   4        4        5 1
   5        5        6 1
   6        6        7 2
   7        7        8 1
   8        8        9 ar
   9        9       10 ar
  10       10       11 ar
  11       11       12 1
  12       12       13 1
  13       13       14 1
  14       13       15 1
  15       11       16 ar
  16       16       17 ar
  17       17        8 ar
  18        1       18 1
  19        1       19 1
  20        1       20 1
  21        2       21 1
  22        3       22 1
  23        3       23 1
  24        3       24 1
  25        4       25 1
  26        4       26 1
  27        5       27 1
  28        7       28 1
  29        9       29 1
  30       10       30 1
  31       13       31 1
  32       16       32 1
  33       17       33 1

@<TRIPOS>MOLECULE

  33   33
SMALL
USER_CHARGES
@<TRIPOS>ATOM
   1 C1           4.1183     4.0282    -0.4331 C.3          1    LIG   0.0000
   2 C2           3.3583     2.7118    -0.4331 C.3          1    LIG   0.0000
   3 C3           4.1798     1.6525    -1.1496 C.3          1    LIG   0.0000
   4 C4           3.1050     2.2731     1.0000 C.3          1    LIG   0.0000
   5 N5           2.3700     1.0000     1.0000 N.pl3        1    LIG   0.0000
   6 N6           1.0000     1.0000     1.0000 N.2          1    LIG   0.0000
   7 C7           0.4916    -0.1419     1.0000 C.2          1    LIG   0.0000
   8 C8           1.3440    -1.3152     1.0000 C.ar         1    LIG   0.0000
   9 C9           2.2368    -1.5150    -0.0476 C.ar         1    LIG   0.0000
  10 C10          3.0601    -2.6364    -0.0552 C.ar         1    LIG   0.0000
  11 C11          2.9753    -3.5471     0.9929 C.ar         1    LIG   0.0000
  12 S12          4.0024    -4.9516     0.9891 S.3          1    LIG   0.0000
  13 C13          5.4714    -4.3689     1.8715 C.3          1    LIG   0.0000
  14 F14          6.1239    -3.4909     1.1150 F            1    LIG   0.0000
  15 F15          5.1032    -3.7865     3.0092 F            1    LIG   0.0000
  16 C16          2.0858    -3.3561     2.0453 C.ar         1    LIG   0.0000
  17 C17          1.2666    -2.2315     2.0441 C.ar         1    LIG   0.0000
  18 H            4.2850     4.3169    -1.3759 H            1    LIG   0.0000
  19 H            3.5779     4.7251     0.0383 H            1    LIG   0.0000
  20 H            4.9921     3.9086     0.0383 H            1    LIG   0.0000
  21 H            2.4846     2.8314    -0.9045 H            1    LIG   0.0000
  22 H            4.3465     1.9412    -2.0924 H            1    LIG   0.0000
  23 H            5.0536     1.5329    -0.6782 H            1    LIG   0.0000
  24 H            3.6798     0.7865    -1.1496 H            1    LIG   0.0000
  25 H            3.9788     2.1535     1.4714 H            1    LIG   0.0000
  26 H            2.5646     2.9700     1.4714 H            1    LIG   0.0000
  27 H            2.8700     0.1340     1.0000 H            1    LIG   0.0000
  28 H           -0.5029    -0.2465     1.0000 H            1    LIG   0.0000
  29 H            2.2868    -0.8527    -0.7951 H            1    LIG   0.0000
  30 H            3.7049    -2.7859    -0.8048 H            1    LIG   0.0000
  31 H            6.0692    -5.1449     2.0726 H            1    LIG   0.0000
  32 H            2.0358    -4.0184     2.7929 H            1    LIG   0.0000
  33 H            0.6220    -2.0817     2.7939 H            1    LIG   0.0000
@<TRIPOS>BOND
   1        1        2 1
   2        2        3 1
   3        2        4 1
   4        4        5 1
   5        5        6 1
   6        6        7 2
   7        7        8 1
   8        8        9 ar
   9        9       10 ar
  10       10       11 ar
  11       11       12 1
  12       12       13 1
  13       13       14 1
  14       13       15 1
  15       11       16 ar
  16       16       17 ar
  17       17        8 ar
  18        1       18 1
  19        1       19 1
  20        1       20 1
  21        2       21 1
  22        3       22 1
  23        3       23 1
  24        3       24 1
  25        4       25 1
  26        4       26 1
  27        5       27 1
  28        7       28 1
  29        9       29 1
  30       10       30 1
  31       13       31 1
  32       16       32 1
  33       17       33 1

