@<TRIPOS>MOLECULE
*****
 33 33 0 0 0
SMALL
USER_CHARGES

@<TRIPOS>ATOM
      1 C1          5.3594    3.3117    1.0000 C.3     1  LIG1        0.0000
      2 C2          4.5994    1.9953    1.0000 C.3     1  LIG1        0.0000
      3 C3          4.9666    1.1983    2.2411 C.3     1  LIG1        0.0000
      4 C4          3.1050    2.2731    1.0000 C.3     1  LIG1        0.0000
      5 N5          2.3700    1.0000    1.0000 N.pl3   1  LIG1        0.0000
      6 N6          1.0000    1.0000    1.0000 N.2     1  LIG1        0.0000
      7 C7          0.4916   -0.1419    1.0000 C.2     1  LIG1        0.0000
      8 C8          1.3440   -1.3152    1.0000 C.ar    1  LIG1        0.0000
      9 C9          2.2368   -1.5150    2.0476 C.ar    1  LIG1        0.0000
     10 C10         3.0570   -2.6386    2.0574 C.ar    1  LIG1        0.0000
     11 C11         2.9708   -3.5504    1.0104 C.ar    1  LIG1        0.0000
     12 S12         3.9940   -4.9578    1.0170 S.3     1  LIG1        0.0000
     13 C13         4.9370   -4.7531    2.5483 C.3     1  LIG1        0.0000
     14 F14         5.7775   -5.7739    2.6911 F       1  LIG1        0.0000
     15 F15         5.6251   -3.6161    2.4966 F       1  LIG1        0.0000
     16 C16         2.0809   -3.3596   -0.0418 C.ar    1  LIG1        0.0000
     17 C17         1.2646   -2.2329   -0.0428 C.ar    1  LIG1        0.0000
     18 H           6.3426    3.1289    1.0000 H       1  LIG1        0.0000
     19 H           5.1178    3.8360    0.1835 H       1  LIG1        0.0000
     20 H           5.1178    3.8360    1.8165 H       1  LIG1        0.0000
     21 H           4.8410    1.4709    0.1835 H       1  LIG1        0.0000
     22 H           5.9498    1.0155    2.2411 H       1  LIG1        0.0000
     23 H           4.7250    1.7226    3.0576 H       1  LIG1        0.0000
     24 H           4.4666    0.3322    2.2411 H       1  LIG1        0.0000
     25 H           2.8634    2.7974    1.8165 H       1  LIG1        0.0000
     26 H           2.8634    2.7974    0.1835 H       1  LIG1        0.0000
     27 H           2.8700    0.1340    1.0000 H       1  LIG1        0.0000
     28 H          -0.5029   -0.2465    1.0000 H       1  LIG1        0.0000
     29 H           2.2891   -0.8511    2.7935 H       1  LIG1        0.0000
     30 H           3.7006   -2.7890    2.8079 H       1  LIG1        0.0000
     31 H           4.3087   -4.7274    3.3258 H       1  LIG1        0.0000
     32 H           2.0286   -4.0236   -0.7877 H       1  LIG1        0.0000
     33 H           0.6207   -2.0826   -0.7930 H       1  LIG1        0.0000
@<TRIPOS>BOND
     1     1     2    1
     2     2     3    1
     3     2     4    1
     4     4     5    1
     5     5     6    1
     6     6     7    2
     7     7     8    1
     8     8     9   ar
     9     9    10   ar
    10    10    11   ar
    11    11    12    1
    12    12    13    1
    13    13    14    1
    14    13    15    1
    15    11    16   ar
    16    16    17   ar
    17    17     8   ar
    18     1    18    1
    19     1    19    1
    20     1    20    1
    21     2    21    1
    22     3    22    1
    23     3    23    1
    24     3    24    1
    25     4    25    1
    26     4    26    1
    27     5    27    1
    28     7    28    1
    29     9    29    1
    30    10    30    1
    31    13    31    1
    32    16    32    1
    33    17    33    1
