@<TRIPOS>MOLECULE
*****
 33 33 0 0 0
SMALL
USER_CHARGES

@<TRIPOS>ATOM
      1 C1          4.1183    4.0282    2.4331 C.3     1  LIG1        0.0000
      2 C2          3.3583    2.7118    2.4331 C.3     1  LIG1        0.0000
      3 C3          2.0302    2.8936    3.1496 C.3     1  LIG1        0.0000
      4 C4          3.1050    2.2731    1.0000 C.3     1  LIG1        0.0000
      5 N5          2.3700    1.0000    1.0000 N.pl3   1  LIG1        0.0000
      6 N6          1.0000    1.0000    1.0000 N.2     1  LIG1        0.0000
      7 C7          0.4916   -0.1419    1.0000 C.2     1  LIG1        0.0000
      8 C8          1.3440   -1.3152    1.0000 C.ar    1  LIG1        0.0000
      9 C9          2.2368   -1.5150   -0.0476 C.ar    1  LIG1        0.0000
     10 C10         3.0601   -2.6364   -0.0552 C.ar    1  LIG1        0.0000
     11 C11         2.9753   -3.5471    0.9929 C.ar    1  LIG1        0.0000
     12 S12         4.0024   -4.9516    0.9891 S.3     1  LIG1        0.0000
     13 C13         5.4714   -4.3689    1.8715 C.3     1  LIG1        0.0000
     14 F14         6.3622   -5.3535    1.9482 F       1  LIG1        0.0000
     15 F15         6.0028   -3.3402    1.2170 F       1  LIG1        0.0000
     16 C16         2.0858   -3.3561    2.0453 C.ar    1  LIG1        0.0000
     17 C17         1.2666   -2.2315    2.0441 C.ar    1  LIG1        0.0000
     18 H           4.2850    4.3169    3.3759 H       1  LIG1        0.0000
     19 H           4.9921    3.9086    1.9617 H       1  LIG1        0.0000
     20 H           3.5779    4.7251    1.9617 H       1  LIG1        0.0000
     21 H           3.8988    2.0149    2.9045 H       1  LIG1        0.0000
     22 H           2.1969    3.1823    4.0924 H       1  LIG1        0.0000
     23 H           1.4898    3.5905    2.6782 H       1  LIG1        0.0000
     24 H           1.5302    2.0276    3.1496 H       1  LIG1        0.0000
     25 H           2.5646    2.9700    0.5286 H       1  LIG1        0.0000
     26 H           3.9788    2.1535    0.5286 H       1  LIG1        0.0000
     27 H           2.8700    0.1340    1.0000 H       1  LIG1        0.0000
     28 H          -0.5029   -0.2465    1.0000 H       1  LIG1        0.0000
     29 H           2.2868   -0.8527   -0.7951 H       1  LIG1        0.0000
     30 H           3.7049   -2.7859   -0.8048 H       1  LIG1        0.0000
     31 H           5.2136   -4.0800    2.7935 H       1  LIG1        0.0000
     32 H           2.0358   -4.0184    2.7929 H       1  LIG1        0.0000
     33 H           0.6220   -2.0817    2.7939 H       1  LIG1        0.0000
@<TRIPOS>BOND
     1     1     2    1
     2     2     3    1
     3     2     4    1
     4     4     5    1
     5     5     6    1
     6     6     7    2
     7     7     8    1
     8     8     9   ar
     9     9    10   ar
    10    10    11   ar
    11    11    12    1
    12    12    13    1
    13    13    14    1
    14    13    15    1
    15    11    16   ar
    16    16    17   ar
    17    17     8   ar
    18     1    18    1
    19     1    19    1
    20     1    20    1
    21     2    21    1
    22     3    22    1
    23     3    23    1
    24     3    24    1
    25     4    25    1
    26     4    26    1
    27     5    27    1
    28     7    28    1
    29     9    29    1
    30    10    30    1
    31    13    31    1
    32    16    32    1
    33    17    33    1
