@<TRIPOS>MOLECULE

  58   61
SMALL
USER_CHARGES
@<TRIPOS>ATOM
   1 C1           6.8160     0.0237     4.5047 C.3          1    LIG   0.0000
   2 O2           5.8800     0.7845     3.7553 O.3          1    LIG   0.0000
   3 C3           5.6430     0.3507     2.5422 C.2          1    LIG   0.0000
   4 O4           6.2036    -0.6291     2.1351 O.2          1    LIG   0.0000
   5 C5           4.6586     1.0877     1.6509 C.3          1    LIG   0.0000
   6 C6           3.2541     0.9290     2.1907 C.3          1    LIG   0.0000
   7 N7           2.4030     1.0000     1.0000 N.am         1    LIG   0.0000
   8 C8           1.0000     1.0000     1.0000 C.2          1    LIG   0.0000
   9 O9           0.4000     1.0587    -0.0376 O.2          1    LIG   0.0000
  10 C10          0.2758     0.9291     2.2523 C.2          1    LIG   0.0000
  11 N11          0.3393    -0.0279     3.1354 N.2          1    LIG   0.0000
  12 N12         -0.4512     0.2139     4.1643 N.pl3        1    LIG   0.0000
  13 C13         -0.6171    -0.6114     5.2833 C.ar         1    LIG   0.0000
  14 C14          0.0903    -1.8063     5.3713 C.ar         1    LIG   0.0000
  15 C15         -0.0702    -2.6293     6.4808 C.ar         1    LIG   0.0000
  16 C16         -0.9432    -2.2410     7.4923 C.ar         1    LIG   0.0000
  17 C17         -1.1235    -3.1360     8.7077 C.3          1    LIG   0.0000
  18 C18         -1.6431    -4.4939     8.2645 C.3          1    LIG   0.0000
  19 C19          0.2125    -3.3098     9.4116 C.3          1    LIG   0.0000
  20 C20         -1.6514    -1.0473     7.4035 C.ar         1    LIG   0.0000
  21 C21         -1.4905    -0.2239     6.2941 C.ar         1    LIG   0.0000
  22 C22         -1.0904     1.4051     3.9716 C.2          1    LIG   0.0000
  23 C23         -0.6460     1.8741     2.7696 C.2          1    LIG   0.0000
  24 O24         -1.0183     3.0291     2.1708 O.3          1    LIG  -1.0000
  25 C25          3.2503     1.0674    -0.1904 C.3          1    LIG   0.0000
  26 C26          4.5277     0.4304     0.2991 C.3          1    LIG   0.0000
  27 C27          5.7069     0.7868    -0.5915 C.ar         1    LIG   0.0000
  28 C28          6.0064     2.1229    -0.8332 C.ar         1    LIG   0.0000
  29 C29          7.0837     2.4583    -1.6468 C.ar         1    LIG   0.0000
  30 C30          7.8496     1.4433    -2.2110 C.ar         1    LIG   0.0000
  31 Cl31         9.2292     1.8645    -3.2535 Cl           1    LIG   0.0000
  32 C32          7.5572     0.1040    -1.9758 C.ar         1    LIG   0.0000
  33 C33          6.4777    -0.2215    -1.1598 C.ar         1    LIG   0.0000
  34 H            4.9045     2.0528     1.5614 H            1    LIG   0.0000
  35 H            4.4273    -0.5606     0.3869 H            1    LIG   0.0000
  36 H            6.9283     0.4320     5.4106 H            1    LIG   0.0000
  37 H            6.4824    -0.9141     4.6008 H            1    LIG   0.0000
  38 H            7.6963     0.0174     4.0304 H            1    LIG   0.0000
  39 H            3.1482     0.0474     2.6507 H            1    LIG   0.0000
  40 H            3.0338     1.6666     2.8290 H            1    LIG   0.0000
  41 H            0.7140    -2.0734     4.6367 H            1    LIG   0.0000
  42 H            0.4355    -3.4891     6.5508 H            1    LIG   0.0000
  43 H           -1.7792    -2.7171     9.3359 H            1    LIG   0.0000
  44 H           -1.7617    -5.0827     9.0640 H            1    LIG   0.0000
  45 H           -2.5220    -4.3796     7.8014 H            1    LIG   0.0000
  46 H           -0.9874    -4.9129     7.6363 H            1    LIG   0.0000
  47 H            0.0939    -3.8986    10.2111 H            1    LIG   0.0000
  48 H            0.8682    -3.7288     8.7834 H            1    LIG   0.0000
  49 H            0.5543    -2.4165     9.7032 H            1    LIG   0.0000
  50 H           -2.2764    -0.7810     8.1373 H            1    LIG   0.0000
  51 H           -1.9964     0.6358     6.2242 H            1    LIG   0.0000
  52 H           -1.7481     1.8431     4.5845 H            1    LIG   0.0000
  53 H            3.4019     2.0137    -0.4756 H            1    LIG   0.0000
  54 H            2.8535     0.5502    -0.9487 H            1    LIG   0.0000
  55 H            5.4472     2.8429    -0.4220 H            1    LIG   0.0000
  56 H            7.3049     3.4173    -1.8239 H            1    LIG   0.0000
  57 H            8.1156    -0.6161    -2.3878 H            1    LIG   0.0000
  58 H            6.2564    -1.1804    -0.9822 H            1    LIG   0.0000
@<TRIPOS>BOND
   1        1        2 1
   2        2        3 1
   3        3        4 2
   4        3        5 1
   5        5        6 1
   6        6        7 1
   7        7        8 am
   8        8        9 2
   9        8       10 1
  10       10       11 2
  11       11       12 1
  12       12       13 1
  13       13       14 ar
  14       14       15 ar
  15       15       16 ar
  16       16       17 1
  17       17       18 1
  18       17       19 1
  19       16       20 ar
  20       20       21 ar
  21       21       13 ar
  22       12       22 1
  23       22       23 2
  24       23       10 1
  25       23       24 1
  26        7       25 1
  27       25       26 1
  28       26        5 1
  29       26       27 1
  30       27       28 ar
  31       28       29 ar
  32       29       30 ar
  33       30       31 1
  34       30       32 ar
  35       32       33 ar
  36       33       27 ar
  37        5       34 1
  38       26       35 1
  39        1       36 1
  40        1       37 1
  41        1       38 1
  42        6       39 1
  43        6       40 1
  44       14       41 1
  45       15       42 1
  46       17       43 1
  47       18       44 1
  48       18       45 1
  49       18       46 1
  50       19       47 1
  51       19       48 1
  52       19       49 1
  53       20       50 1
  54       21       51 1
  55       22       52 1
  56       25       53 1
  57       25       54 1
  58       28       55 1
  59       29       56 1
  60       32       57 1
  61       33       58 1

@<TRIPOS>MOLECULE

  58   61
SMALL
USER_CHARGES
@<TRIPOS>ATOM
   1 C1           6.8160     0.0237     4.5047 C.3          1    LIG   0.0000
   2 O2           5.8800     0.7845     3.7553 O.3          1    LIG   0.0000
   3 C3           5.6430     0.3507     2.5422 C.2          1    LIG   0.0000
   4 O4           6.2036    -0.6291     2.1351 O.2          1    LIG   0.0000
   5 C5           4.6586     1.0877     1.6509 C.3          1    LIG   0.0000
   6 C6           3.2541     0.9290     2.1907 C.3          1    LIG   0.0000
   7 N7           2.4030     1.0000     1.0000 N.am         1    LIG   0.0000
   8 C8           1.0000     1.0000     1.0000 C.2          1    LIG   0.0000
   9 O9           0.4000     1.0587    -0.0376 O.2          1    LIG   0.0000
  10 C10          0.2758     0.9291     2.2523 C.2          1    LIG   0.0000
  11 N11          0.3393     1.7805     3.2377 N.2          1    LIG   0.0000
  12 N12         -0.4449     1.4197     4.2362 N.pl3        1    LIG   0.0000
  13 C13         -0.6095     2.1125     5.4418 C.ar         1    LIG   0.0000
  14 C14          0.0922     3.2939     5.6610 C.ar         1    LIG   0.0000
  15 C15         -0.0682     3.9865     6.8563 C.ar         1    LIG   0.0000
  16 C16         -0.9344     3.4818     7.8213 C.ar         1    LIG   0.0000
  17 C17         -1.1142     4.2336     9.1301 C.3          1    LIG   0.0000
  18 C18          0.2240     4.3357     9.8438 C.3          1    LIG   0.0000
  19 C19         -1.6437     5.6294     8.8441 C.3          1    LIG   0.0000
  20 C20         -1.6345     2.3001     7.6027 C.ar         1    LIG   0.0000
  21 C21         -1.4746     1.6077     6.4070 C.ar         1    LIG   0.0000
  22 C22         -1.0801     0.2551     3.9125 C.2          1    LIG   0.0000
  23 C23         -0.6392    -0.0729     2.6634 C.2          1    LIG   0.0000
  24 O24         -1.0015    -1.1600     1.9435 O.3          1    LIG  -1.0000
  25 C25          3.2503     1.0674    -0.1904 C.3          1    LIG   0.0000
  26 C26          4.5277     0.4304     0.2991 C.3          1    LIG   0.0000
  27 C27          5.7069     0.7868    -0.5915 C.ar         1    LIG   0.0000
  28 C28          6.0064     2.1229    -0.8332 C.ar         1    LIG   0.0000
  29 C29          7.0837     2.4583    -1.6468 C.ar         1    LIG   0.0000
  30 C30          7.8496     1.4433    -2.2110 C.ar         1    LIG   0.0000
  31 Cl31         9.2292     1.8645    -3.2535 Cl           1    LIG   0.0000
  32 C32          7.5572     0.1040    -1.9758 C.ar         1    LIG   0.0000
  33 C33          6.4777    -0.2215    -1.1598 C.ar         1    LIG   0.0000
  34 H            4.9045     2.0528     1.5614 H            1    LIG   0.0000
  35 H            4.4273    -0.5606     0.3869 H            1    LIG   0.0000
  36 H            6.9283     0.4320     5.4106 H            1    LIG   0.0000
  37 H            6.4824    -0.9141     4.6008 H            1    LIG   0.0000
  38 H            7.6963     0.0174     4.0304 H            1    LIG   0.0000
  39 H            3.1482     0.0474     2.6507 H            1    LIG   0.0000
  40 H            3.0338     1.6666     2.8290 H            1    LIG   0.0000
  41 H            0.7119     3.6450     4.9591 H            1    LIG   0.0000
  42 H            0.4325     4.8364     7.0202 H            1    LIG   0.0000
  43 H           -1.7645     3.7427     9.7099 H            1    LIG   0.0000
  44 H            0.1057     4.8303    10.7048 H            1    LIG   0.0000
  45 H            0.5723     3.4175    10.0320 H            1    LIG   0.0000
  46 H            0.8743     4.8266     9.2640 H            1    LIG   0.0000
  47 H           -1.7620     6.1240     9.7051 H            1    LIG   0.0000
  48 H           -0.9933     6.1203     8.2643 H            1    LIG   0.0000
  49 H           -2.5240     5.5622     8.3746 H            1    LIG   0.0000
  50 H           -2.2530     1.9482     8.3053 H            1    LIG   0.0000
  51 H           -1.9752     0.7577     6.2433 H            1    LIG   0.0000
  52 H           -1.7332    -0.2525     4.4745 H            1    LIG   0.0000
  53 H            3.4019     2.0137    -0.4756 H            1    LIG   0.0000
  54 H            2.8535     0.5502    -0.9487 H            1    LIG   0.0000
  55 H            5.4472     2.8429    -0.4220 H            1    LIG   0.0000
  56 H            7.3049     3.4173    -1.8239 H            1    LIG   0.0000
  57 H            8.1156    -0.6161    -2.3878 H            1    LIG   0.0000
  58 H            6.2564    -1.1804    -0.9822 H            1    LIG   0.0000
@<TRIPOS>BOND
   1        1        2 1
   2        2        3 1
   3        3        4 2
   4        3        5 1
   5        5        6 1
   6        6        7 1
   7        7        8 am
   8        8        9 2
   9        8       10 1
  10       10       11 2
  11       11       12 1
  12       12       13 1
  13       13       14 ar
  14       14       15 ar
  15       15       16 ar
  16       16       17 1
  17       17       18 1
  18       17       19 1
  19       16       20 ar
  20       20       21 ar
  21       21       13 ar
  22       12       22 1
  23       22       23 2
  24       23       10 1
  25       23       24 1
  26        7       25 1
  27       25       26 1
  28       26        5 1
  29       26       27 1
  30       27       28 ar
  31       28       29 ar
  32       29       30 ar
  33       30       31 1
  34       30       32 ar
  35       32       33 ar
  36       33       27 ar
  37        5       34 1
  38       26       35 1
  39        1       36 1
  40        1       37 1
  41        1       38 1
  42        6       39 1
  43        6       40 1
  44       14       41 1
  45       15       42 1
  46       17       43 1
  47       18       44 1
  48       18       45 1
  49       18       46 1
  50       19       47 1
  51       19       48 1
  52       19       49 1
  53       20       50 1
  54       21       51 1
  55       22       52 1
  56       25       53 1
  57       25       54 1
  58       28       55 1
  59       29       56 1
  60       32       57 1
  61       33       58 1

@<TRIPOS>MOLECULE

  58   61
SMALL
USER_CHARGES
@<TRIPOS>ATOM
   1 C1           6.8160     1.9763    -2.5047 C.3          1    LIG   0.0000
   2 O2           5.8800     1.2155    -1.7553 O.3          1    LIG   0.0000
   3 C3           5.6430     1.6493    -0.5422 C.2          1    LIG   0.0000
   4 O4           6.2036     2.6291    -0.1351 O.2          1    LIG   0.0000
   5 C5           4.6586     0.9123     0.3491 C.3          1    LIG   0.0000
   6 C6           3.2541     1.0710    -0.1907 C.3          1    LIG   0.0000
   7 N7           2.4030     1.0000     1.0000 N.am         1    LIG   0.0000
   8 C8           1.0000     1.0000     1.0000 C.2          1    LIG   0.0000
   9 O9           0.4000     1.0587    -0.0376 O.2          1    LIG   0.0000
  10 C10          0.2758     0.9291     2.2523 C.2          1    LIG   0.0000
  11 N11          0.3393    -0.0279     3.1354 N.2          1    LIG   0.0000
  12 N12         -0.4512     0.2139     4.1643 N.pl3        1    LIG   0.0000
  13 C13         -0.6171    -0.6114     5.2833 C.ar         1    LIG   0.0000
  14 C14          0.0903    -1.8063     5.3713 C.ar         1    LIG   0.0000
  15 C15         -0.0702    -2.6293     6.4808 C.ar         1    LIG   0.0000
  16 C16         -0.9432    -2.2410     7.4923 C.ar         1    LIG   0.0000
  17 C17         -1.1235    -3.1360     8.7077 C.3          1    LIG   0.0000
  18 C18         -1.6431    -4.4939     8.2645 C.3          1    LIG   0.0000
  19 C19          0.2125    -3.3098     9.4116 C.3          1    LIG   0.0000
  20 C20         -1.6514    -1.0473     7.4035 C.ar         1    LIG   0.0000
  21 C21         -1.4905    -0.2239     6.2941 C.ar         1    LIG   0.0000
  22 C22         -1.0904     1.4051     3.9716 C.2          1    LIG   0.0000
  23 C23         -0.6460     1.8741     2.7696 C.2          1    LIG   0.0000
  24 O24         -1.0183     3.0291     2.1708 O.3          1    LIG  -1.0000
  25 C25          3.2503     0.9326     2.1904 C.3          1    LIG   0.0000
  26 C26          4.5277     1.5696     1.7009 C.3          1    LIG   0.0000
  27 C27          5.7069     1.2132     2.5915 C.ar         1    LIG   0.0000
  28 C28          6.0064    -0.1229     2.8332 C.ar         1    LIG   0.0000
  29 C29          7.0837    -0.4583     3.6468 C.ar         1    LIG   0.0000
  30 C30          7.8496     0.5567     4.2110 C.ar         1    LIG   0.0000
  31 Cl31         9.2292     0.1355     5.2535 Cl           1    LIG   0.0000
  32 C32          7.5572     1.8960     3.9758 C.ar         1    LIG   0.0000
  33 C33          6.4777     2.2215     3.1598 C.ar         1    LIG   0.0000
  34 H            4.9045    -0.0528     0.4386 H            1    LIG   0.0000
  35 H            4.4273     2.5606     1.6131 H            1    LIG   0.0000
  36 H            6.9283     1.5680    -3.4106 H            1    LIG   0.0000
  37 H            6.4824     2.9141    -2.6008 H            1    LIG   0.0000
  38 H            7.6963     1.9826    -2.0304 H            1    LIG   0.0000
  39 H            3.1482     1.9526    -0.6507 H            1    LIG   0.0000
  40 H            3.0338     0.3334    -0.8290 H            1    LIG   0.0000
  41 H            0.7140    -2.0734     4.6367 H            1    LIG   0.0000
  42 H            0.4355    -3.4891     6.5508 H            1    LIG   0.0000
  43 H           -1.7792    -2.7171     9.3359 H            1    LIG   0.0000
  44 H           -1.7617    -5.0827     9.0640 H            1    LIG   0.0000
  45 H           -2.5220    -4.3796     7.8014 H            1    LIG   0.0000
  46 H           -0.9874    -4.9129     7.6363 H            1    LIG   0.0000
  47 H            0.0939    -3.8986    10.2111 H            1    LIG   0.0000
  48 H            0.8682    -3.7288     8.7834 H            1    LIG   0.0000
  49 H            0.5543    -2.4165     9.7032 H            1    LIG   0.0000
  50 H           -2.2764    -0.7810     8.1373 H            1    LIG   0.0000
  51 H           -1.9964     0.6358     6.2242 H            1    LIG   0.0000
  52 H           -1.7481     1.8431     4.5845 H            1    LIG   0.0000
  53 H            3.4019    -0.0137     2.4756 H            1    LIG   0.0000
  54 H            2.8535     1.4498     2.9487 H            1    LIG   0.0000
  55 H            5.4472    -0.8429     2.4220 H            1    LIG   0.0000
  56 H            7.3049    -1.4173     3.8239 H            1    LIG   0.0000
  57 H            8.1156     2.6161     4.3878 H            1    LIG   0.0000
  58 H            6.2564     3.1804     2.9822 H            1    LIG   0.0000
@<TRIPOS>BOND
   1        1        2 1
   2        2        3 1
   3        3        4 2
   4        3        5 1
   5        5        6 1
   6        6        7 1
   7        7        8 am
   8        8        9 2
   9        8       10 1
  10       10       11 2
  11       11       12 1
  12       12       13 1
  13       13       14 ar
  14       14       15 ar
  15       15       16 ar
  16       16       17 1
  17       17       18 1
  18       17       19 1
  19       16       20 ar
  20       20       21 ar
  21       21       13 ar
  22       12       22 1
  23       22       23 2
  24       23       10 1
  25       23       24 1
  26        7       25 1
  27       25       26 1
  28       26        5 1
  29       26       27 1
  30       27       28 ar
  31       28       29 ar
  32       29       30 ar
  33       30       31 1
  34       30       32 ar
  35       32       33 ar
  36       33       27 ar
  37        5       34 1
  38       26       35 1
  39        1       36 1
  40        1       37 1
  41        1       38 1
  42        6       39 1
  43        6       40 1
  44       14       41 1
  45       15       42 1
  46       17       43 1
  47       18       44 1
  48       18       45 1
  49       18       46 1
  50       19       47 1
  51       19       48 1
  52       19       49 1
  53       20       50 1
  54       21       51 1
  55       22       52 1
  56       25       53 1
  57       25       54 1
  58       28       55 1
  59       29       56 1
  60       32       57 1
  61       33       58 1

@<TRIPOS>MOLECULE

  58   61
SMALL
USER_CHARGES
@<TRIPOS>ATOM
   1 C1           6.8160     1.9763    -2.5047 C.3          1    LIG   0.0000
   2 O2           5.8800     1.2155    -1.7553 O.3          1    LIG   0.0000
   3 C3           5.6430     1.6493    -0.5422 C.2          1    LIG   0.0000
   4 O4           6.2036     2.6291    -0.1351 O.2          1    LIG   0.0000
   5 C5           4.6586     0.9123     0.3491 C.3          1    LIG   0.0000
   6 C6           3.2541     1.0710    -0.1907 C.3          1    LIG   0.0000
   7 N7           2.4030     1.0000     1.0000 N.am         1    LIG   0.0000
   8 C8           1.0000     1.0000     1.0000 C.2          1    LIG   0.0000
   9 O9           0.4000     1.0587    -0.0376 O.2          1    LIG   0.0000
  10 C10          0.2758     0.9291     2.2523 C.2          1    LIG   0.0000
  11 N11          0.3393     1.7805     3.2377 N.2          1    LIG   0.0000
  12 N12         -0.4449     1.4197     4.2362 N.pl3        1    LIG   0.0000
  13 C13         -0.6095     2.1125     5.4418 C.ar         1    LIG   0.0000
  14 C14          0.0922     3.2939     5.6610 C.ar         1    LIG   0.0000
  15 C15         -0.0682     3.9865     6.8563 C.ar         1    LIG   0.0000
  16 C16         -0.9344     3.4818     7.8213 C.ar         1    LIG   0.0000
  17 C17         -1.1142     4.2336     9.1301 C.3          1    LIG   0.0000
  18 C18          0.2240     4.3357     9.8438 C.3          1    LIG   0.0000
  19 C19         -1.6437     5.6294     8.8441 C.3          1    LIG   0.0000
  20 C20         -1.6345     2.3001     7.6027 C.ar         1    LIG   0.0000
  21 C21         -1.4746     1.6077     6.4070 C.ar         1    LIG   0.0000
  22 C22         -1.0801     0.2551     3.9125 C.2          1    LIG   0.0000
  23 C23         -0.6392    -0.0729     2.6634 C.2          1    LIG   0.0000
  24 O24         -1.0015    -1.1600     1.9435 O.3          1    LIG  -1.0000
  25 C25          3.2503     0.9326     2.1904 C.3          1    LIG   0.0000
  26 C26          4.5277     1.5696     1.7009 C.3          1    LIG   0.0000
  27 C27          5.7069     1.2132     2.5915 C.ar         1    LIG   0.0000
  28 C28          6.0064    -0.1229     2.8332 C.ar         1    LIG   0.0000
  29 C29          7.0837    -0.4583     3.6468 C.ar         1    LIG   0.0000
  30 C30          7.8496     0.5567     4.2110 C.ar         1    LIG   0.0000
  31 Cl31         9.2292     0.1355     5.2535 Cl           1    LIG   0.0000
  32 C32          7.5572     1.8960     3.9758 C.ar         1    LIG   0.0000
  33 C33          6.4777     2.2215     3.1598 C.ar         1    LIG   0.0000
  34 H            4.9045    -0.0528     0.4386 H            1    LIG   0.0000
  35 H            4.4273     2.5606     1.6131 H            1    LIG   0.0000
  36 H            6.9283     1.5680    -3.4106 H            1    LIG   0.0000
  37 H            6.4824     2.9141    -2.6008 H            1    LIG   0.0000
  38 H            7.6963     1.9826    -2.0304 H            1    LIG   0.0000
  39 H            3.1482     1.9526    -0.6507 H            1    LIG   0.0000
  40 H            3.0338     0.3334    -0.8290 H            1    LIG   0.0000
  41 H            0.7119     3.6450     4.9591 H            1    LIG   0.0000
  42 H            0.4325     4.8364     7.0202 H            1    LIG   0.0000
  43 H           -1.7645     3.7427     9.7099 H            1    LIG   0.0000
  44 H            0.1057     4.8303    10.7048 H            1    LIG   0.0000
  45 H            0.5723     3.4175    10.0320 H            1    LIG   0.0000
  46 H            0.8743     4.8266     9.2640 H            1    LIG   0.0000
  47 H           -1.7620     6.1240     9.7051 H            1    LIG   0.0000
  48 H           -0.9933     6.1203     8.2643 H            1    LIG   0.0000
  49 H           -2.5240     5.5622     8.3746 H            1    LIG   0.0000
  50 H           -2.2530     1.9482     8.3053 H            1    LIG   0.0000
  51 H           -1.9752     0.7577     6.2433 H            1    LIG   0.0000
  52 H           -1.7332    -0.2525     4.4745 H            1    LIG   0.0000
  53 H            3.4019    -0.0137     2.4756 H            1    LIG   0.0000
  54 H            2.8535     1.4498     2.9487 H            1    LIG   0.0000
  55 H            5.4472    -0.8429     2.4220 H            1    LIG   0.0000
  56 H            7.3049    -1.4173     3.8239 H            1    LIG   0.0000
  57 H            8.1156     2.6161     4.3878 H            1    LIG   0.0000
  58 H            6.2564     3.1804     2.9822 H            1    LIG   0.0000
@<TRIPOS>BOND
   1        1        2 1
   2        2        3 1
   3        3        4 2
   4        3        5 1
   5        5        6 1
   6        6        7 1
   7        7        8 am
   8        8        9 2
   9        8       10 1
  10       10       11 2
  11       11       12 1
  12       12       13 1
  13       13       14 ar
  14       14       15 ar
  15       15       16 ar
  16       16       17 1
  17       17       18 1
  18       17       19 1
  19       16       20 ar
  20       20       21 ar
  21       21       13 ar
  22       12       22 1
  23       22       23 2
  24       23       10 1
  25       23       24 1
  26        7       25 1
  27       25       26 1
  28       26        5 1
  29       26       27 1
  30       27       28 ar
  31       28       29 ar
  32       29       30 ar
  33       30       31 1
  34       30       32 ar
  35       32       33 ar
  36       33       27 ar
  37        5       34 1
  38       26       35 1
  39        1       36 1
  40        1       37 1
  41        1       38 1
  42        6       39 1
  43        6       40 1
  44       14       41 1
  45       15       42 1
  46       17       43 1
  47       18       44 1
  48       18       45 1
  49       18       46 1
  50       19       47 1
  51       19       48 1
  52       19       49 1
  53       20       50 1
  54       21       51 1
  55       22       52 1
  56       25       53 1
  57       25       54 1
  58       28       55 1
  59       29       56 1
  60       32       57 1
  61       33       58 1

@<TRIPOS>MOLECULE

  58   61
SMALL
USER_CHARGES
@<TRIPOS>ATOM
   1 C1           6.8160     1.9763    -2.5047 C.3          1    LIG   0.0000
   2 O2           5.8800     1.2155    -1.7553 O.3          1    LIG   0.0000
   3 C3           5.6430     1.6493    -0.5422 C.2          1    LIG   0.0000
   4 O4           6.2036     2.6291    -0.1351 O.2          1    LIG   0.0000
   5 C5           4.6586     0.9123     0.3491 C.3          1    LIG   0.0000
   6 C6           3.2541     1.0710    -0.1907 C.3          1    LIG   0.0000
   7 N7           2.4030     1.0000     1.0000 N.am         1    LIG   0.0000
   8 C8           1.0000     1.0000     1.0000 C.2          1    LIG   0.0000
   9 O9           0.4000     1.0587    -0.0376 O.2          1    LIG   0.0000
  10 C10          0.2758     0.9291     2.2523 C.2          1    LIG   0.0000
  11 N11         -0.8978     1.4387     2.5030 N.2          1    LIG   0.0000
  12 N12         -1.2713     1.1975     3.7458 N.pl3        1    LIG   0.0000
  13 C13         -2.4747     1.6046     4.3345 C.ar         1    LIG   0.0000
  14 C14         -3.3974     2.3317     3.5886 C.ar         1    LIG   0.0000
  15 C15         -4.5946     2.7378     4.1682 C.ar         1    LIG   0.0000
  16 C16         -4.8514     2.4082     5.4954 C.ar         1    LIG   0.0000
  17 C17         -6.1580     2.8491     6.1351 C.3          1    LIG   0.0000
  18 C18         -6.2527     4.3658     6.1002 C.3          1    LIG   0.0000
  19 C19         -7.3254     2.2508     5.3673 C.3          1    LIG   0.0000
  20 C20         -3.9284     1.6828     6.2412 C.ar         1    LIG   0.0000
  21 C21         -2.7314     1.2761     5.6615 C.ar         1    LIG   0.0000
  22 C22         -0.2958     0.4818     4.3789 C.2          1    LIG   0.0000
  23 C23          0.6911     0.3013     3.4539 C.2          1    LIG   0.0000
  24 O24          1.8603    -0.3529     3.6441 O.3          1    LIG  -1.0000
  25 C25          3.2503     0.9326     2.1904 C.3          1    LIG   0.0000
  26 C26          4.5277     1.5696     1.7009 C.3          1    LIG   0.0000
  27 C27          5.7069     1.2132     2.5915 C.ar         1    LIG   0.0000
  28 C28          6.0064    -0.1229     2.8332 C.ar         1    LIG   0.0000
  29 C29          7.0837    -0.4583     3.6468 C.ar         1    LIG   0.0000
  30 C30          7.8496     0.5567     4.2110 C.ar         1    LIG   0.0000
  31 Cl31         9.2292     0.1355     5.2535 Cl           1    LIG   0.0000
  32 C32          7.5572     1.8960     3.9758 C.ar         1    LIG   0.0000
  33 C33          6.4777     2.2215     3.1598 C.ar         1    LIG   0.0000
  34 H            4.9045    -0.0528     0.4386 H            1    LIG   0.0000
  35 H            4.4273     2.5606     1.6131 H            1    LIG   0.0000
  36 H            6.9283     1.5680    -3.4106 H            1    LIG   0.0000
  37 H            6.4824     2.9141    -2.6008 H            1    LIG   0.0000
  38 H            7.6963     1.9826    -2.0304 H            1    LIG   0.0000
  39 H            3.1482     1.9526    -0.6507 H            1    LIG   0.0000
  40 H            3.0338     0.3334    -0.8290 H            1    LIG   0.0000
  41 H           -3.1996     2.5623     2.6359 H            1    LIG   0.0000
  42 H           -5.2623     3.2600     3.6378 H            1    LIG   0.0000
  43 H           -6.1871     2.5351     7.0841 H            1    LIG   0.0000
  44 H           -7.1122     4.6559     6.5210 H            1    LIG   0.0000
  45 H           -5.4846     4.7594     6.6053 H            1    LIG   0.0000
  46 H           -6.2235     4.6798     5.1512 H            1    LIG   0.0000
  47 H           -8.1849     2.5409     5.7881 H            1    LIG   0.0000
  48 H           -7.2962     2.5648     4.4183 H            1    LIG   0.0000
  49 H           -7.2631     1.2530     5.3903 H            1    LIG   0.0000
  50 H           -4.1255     1.4536     7.1945 H            1    LIG   0.0000
  51 H           -2.0636     0.7540     6.1920 H            1    LIG   0.0000
  52 H           -0.3031     0.1571     5.3247 H            1    LIG   0.0000
  53 H            3.4019    -0.0137     2.4756 H            1    LIG   0.0000
  54 H            2.8535     1.4498     2.9487 H            1    LIG   0.0000
  55 H            5.4472    -0.8429     2.4220 H            1    LIG   0.0000
  56 H            7.3049    -1.4173     3.8239 H            1    LIG   0.0000
  57 H            8.1156     2.6161     4.3878 H            1    LIG   0.0000
  58 H            6.2564     3.1804     2.9822 H            1    LIG   0.0000
@<TRIPOS>BOND
   1        1        2 1
   2        2        3 1
   3        3        4 2
   4        3        5 1
   5        5        6 1
   6        6        7 1
   7        7        8 am
   8        8        9 2
   9        8       10 1
  10       10       11 2
  11       11       12 1
  12       12       13 1
  13       13       14 ar
  14       14       15 ar
  15       15       16 ar
  16       16       17 1
  17       17       18 1
  18       17       19 1
  19       16       20 ar
  20       20       21 ar
  21       21       13 ar
  22       12       22 1
  23       22       23 2
  24       23       10 1
  25       23       24 1
  26        7       25 1
  27       25       26 1
  28       26        5 1
  29       26       27 1
  30       27       28 ar
  31       28       29 ar
  32       29       30 ar
  33       30       31 1
  34       30       32 ar
  35       32       33 ar
  36       33       27 ar
  37        5       34 1
  38       26       35 1
  39        1       36 1
  40        1       37 1
  41        1       38 1
  42        6       39 1
  43        6       40 1
  44       14       41 1
  45       15       42 1
  46       17       43 1
  47       18       44 1
  48       18       45 1
  49       18       46 1
  50       19       47 1
  51       19       48 1
  52       19       49 1
  53       20       50 1
  54       21       51 1
  55       22       52 1
  56       25       53 1
  57       25       54 1
  58       28       55 1
  59       29       56 1
  60       32       57 1
  61       33       58 1

@<TRIPOS>MOLECULE

  58   61
SMALL
USER_CHARGES
@<TRIPOS>ATOM
   1 C1           6.8951     1.4323     4.5687 C.3          1    LIG   0.0000
   2 O2           5.7474     1.7981     3.8167 O.3          1    LIG   0.0000
   3 C3           5.6984     1.3248     2.5962 C.2          1    LIG   0.0000
   4 O4           6.5880     0.6323     2.1851 O.2          1    LIG   0.0000
   5 C5           4.5149     1.6527     1.7009 C.3          1    LIG   0.0000
   6 C6           3.2646     0.9517     2.1851 C.3          1    LIG   0.0000
   7 N7           2.4026     1.0000     1.0000 N.am         1    LIG   0.0000
   8 C8           1.0000     1.0000     1.0000 C.2          1    LIG   0.0000
   9 O9           0.4000     1.0587    -0.0376 O.2          1    LIG   0.0000
  10 C10          0.2758     0.9291     2.2523 C.2          1    LIG   0.0000
  11 N11         -0.8978     1.4387     2.5030 N.2          1    LIG   0.0000
  12 N12         -1.2713     1.1975     3.7458 N.pl3        1    LIG   0.0000
  13 C13         -2.4747     1.6046     4.3345 C.ar         1    LIG   0.0000
  14 C14         -3.3974     2.3317     3.5886 C.ar         1    LIG   0.0000
  15 C15         -4.5946     2.7378     4.1682 C.ar         1    LIG   0.0000
  16 C16         -4.8514     2.4082     5.4954 C.ar         1    LIG   0.0000
  17 C17         -6.1580     2.8491     6.1351 C.3          1    LIG   0.0000
  18 C18         -6.2527     4.3658     6.1002 C.3          1    LIG   0.0000
  19 C19         -7.3254     2.2508     5.3673 C.3          1    LIG   0.0000
  20 C20         -3.9284     1.6828     6.2412 C.ar         1    LIG   0.0000
  21 C21         -2.7314     1.2761     5.6615 C.ar         1    LIG   0.0000
  22 C22         -0.2958     0.4818     4.3789 C.2          1    LIG   0.0000
  23 C23          0.6911     0.3013     3.4539 C.2          1    LIG   0.0000
  24 O24          1.8603    -0.3529     3.6441 O.3          1    LIG  -1.0000
  25 C25          3.2388     1.0678    -0.1974 C.3          1    LIG   0.0000
  26 C26          4.6545     1.0112     0.3411 C.3          1    LIG   0.0000
  27 C27          5.6035     1.8062    -0.5408 C.ar         1    LIG   0.0000
  28 C28          5.3601     3.1558    -0.7705 C.ar         1    LIG   0.0000
  29 C29          6.2232     3.8912    -1.5761 C.ar         1    LIG   0.0000
  30 C30          7.3244     3.2592    -2.1446 C.ar         1    LIG   0.0000
  31 Cl31         8.4331     4.1933    -3.1771 Cl           1    LIG   0.0000
  32 C32          7.5756     1.9095    -1.9215 C.ar         1    LIG   0.0000
  33 C33          6.7065     1.1823    -1.1134 C.ar         1    LIG   0.0000
  34 H            4.3750     2.6401     1.6267 H            1    LIG   0.0000
  35 H            4.9622     0.0636     0.4273 H            1    LIG   0.0000
  36 H            6.8401     1.8396     5.4803 H            1    LIG   0.0000
  37 H            6.9365     0.4365     4.6505 H            1    LIG   0.0000
  38 H            7.7169     1.7630     4.1048 H            1    LIG   0.0000
  39 H            3.4590     0.0082     2.4536 H            1    LIG   0.0000
  40 H            2.8508     1.4387     2.9543 H            1    LIG   0.0000
  41 H           -3.1996     2.5623     2.6359 H            1    LIG   0.0000
  42 H           -5.2623     3.2600     3.6378 H            1    LIG   0.0000
  43 H           -6.1871     2.5351     7.0841 H            1    LIG   0.0000
  44 H           -7.1122     4.6559     6.5210 H            1    LIG   0.0000
  45 H           -5.4846     4.7594     6.6053 H            1    LIG   0.0000
  46 H           -6.2235     4.6798     5.1512 H            1    LIG   0.0000
  47 H           -8.1849     2.5409     5.7881 H            1    LIG   0.0000
  48 H           -7.2962     2.5648     4.4183 H            1    LIG   0.0000
  49 H           -7.2631     1.2530     5.3903 H            1    LIG   0.0000
  50 H           -4.1255     1.4536     7.1945 H            1    LIG   0.0000
  51 H           -2.0636     0.7540     6.1920 H            1    LIG   0.0000
  52 H           -0.3031     0.1571     5.3247 H            1    LIG   0.0000
  53 H            3.0810     1.9216    -0.6935 H            1    LIG   0.0000
  54 H            3.0572     0.2924    -0.8023 H            1    LIG   0.0000
  55 H            4.5644     3.5978    -0.3564 H            1    LIG   0.0000
  56 H            6.0543     4.8624    -1.7445 H            1    LIG   0.0000
  57 H            8.3706     1.4671    -2.3365 H            1    LIG   0.0000
  58 H            6.8753     0.2113    -0.9445 H            1    LIG   0.0000
@<TRIPOS>BOND
   1        1        2 1
   2        2        3 1
   3        3        4 2
   4        3        5 1
   5        5        6 1
   6        6        7 1
   7        7        8 am
   8        8        9 2
   9        8       10 1
  10       10       11 2
  11       11       12 1
  12       12       13 1
  13       13       14 ar
  14       14       15 ar
  15       15       16 ar
  16       16       17 1
  17       17       18 1
  18       17       19 1
  19       16       20 ar
  20       20       21 ar
  21       21       13 ar
  22       12       22 1
  23       22       23 2
  24       23       10 1
  25       23       24 1
  26        7       25 1
  27       25       26 1
  28       26        5 1
  29       26       27 1
  30       27       28 ar
  31       28       29 ar
  32       29       30 ar
  33       30       31 1
  34       30       32 ar
  35       32       33 ar
  36       33       27 ar
  37        5       34 1
  38       26       35 1
  39        1       36 1
  40        1       37 1
  41        1       38 1
  42        6       39 1
  43        6       40 1
  44       14       41 1
  45       15       42 1
  46       17       43 1
  47       18       44 1
  48       18       45 1
  49       18       46 1
  50       19       47 1
  51       19       48 1
  52       19       49 1
  53       20       50 1
  54       21       51 1
  55       22       52 1
  56       25       53 1
  57       25       54 1
  58       28       55 1
  59       29       56 1
  60       32       57 1
  61       33       58 1

@<TRIPOS>MOLECULE

  58   61
SMALL
USER_CHARGES
@<TRIPOS>ATOM
   1 C1           7.0953    -0.1189     3.7357 C.3          1    LIG   0.0000
   2 O2           5.9695     0.0780     2.8931 O.3          1    LIG   0.0000
   3 C3           5.6984     1.3248     2.5962 C.2          1    LIG   0.0000
   4 O4           6.3846     2.2079     3.0312 O.2          1    LIG   0.0000
   5 C5           4.5149     1.6527     1.7009 C.3          1    LIG   0.0000
   6 C6           3.2646     0.9517     2.1851 C.3          1    LIG   0.0000
   7 N7           2.4026     1.0000     1.0000 N.am         1    LIG   0.0000
   8 C8           1.0000     1.0000     1.0000 C.2          1    LIG   0.0000
   9 O9           0.4000     1.0587    -0.0376 O.2          1    LIG   0.0000
  10 C10          0.2758     0.9291     2.2523 C.2          1    LIG   0.0000
  11 N11          0.3393    -0.0279     3.1354 N.2          1    LIG   0.0000
  12 N12         -0.4512     0.2139     4.1643 N.pl3        1    LIG   0.0000
  13 C13         -0.6171    -0.6114     5.2833 C.ar         1    LIG   0.0000
  14 C14          0.0903    -1.8063     5.3713 C.ar         1    LIG   0.0000
  15 C15         -0.0702    -2.6293     6.4808 C.ar         1    LIG   0.0000
  16 C16         -0.9432    -2.2410     7.4923 C.ar         1    LIG   0.0000
  17 C17         -1.1235    -3.1360     8.7077 C.3          1    LIG   0.0000
  18 C18         -0.7241    -2.3747     9.9612 C.3          1    LIG   0.0000
  19 C19         -2.5796    -3.5588     8.8141 C.3          1    LIG   0.0000
  20 C20         -1.6514    -1.0473     7.4035 C.ar         1    LIG   0.0000
  21 C21         -1.4905    -0.2239     6.2941 C.ar         1    LIG   0.0000
  22 C22         -1.0904     1.4051     3.9716 C.2          1    LIG   0.0000
  23 C23         -0.6460     1.8741     2.7696 C.2          1    LIG   0.0000
  24 O24         -1.0183     3.0291     2.1708 O.3          1    LIG  -1.0000
  25 C25          3.2388     1.0678    -0.1974 C.3          1    LIG   0.0000
  26 C26          4.6545     1.0112     0.3411 C.3          1    LIG   0.0000
  27 C27          5.6035     1.8062    -0.5408 C.ar         1    LIG   0.0000
  28 C28          5.3601     3.1558    -0.7705 C.ar         1    LIG   0.0000
  29 C29          6.2232     3.8912    -1.5761 C.ar         1    LIG   0.0000
  30 C30          7.3244     3.2592    -2.1446 C.ar         1    LIG   0.0000
  31 Cl31         8.4331     4.1933    -3.1771 Cl           1    LIG   0.0000
  32 C32          7.5756     1.9095    -1.9215 C.ar         1    LIG   0.0000
  33 C33          6.7065     1.1823    -1.1134 C.ar         1    LIG   0.0000
  34 H            4.3750     2.6401     1.6267 H            1    LIG   0.0000
  35 H            4.9622     0.0636     0.4273 H            1    LIG   0.0000
  36 H            7.2192    -1.0970     3.9034 H            1    LIG   0.0000
  37 H            7.9123     0.2493     3.2919 H            1    LIG   0.0000
  38 H            6.9473     0.3522     4.6053 H            1    LIG   0.0000
  39 H            3.4590     0.0082     2.4536 H            1    LIG   0.0000
  40 H            2.8508     1.4387     2.9543 H            1    LIG   0.0000
  41 H            0.7140    -2.0734     4.6367 H            1    LIG   0.0000
  42 H            0.4355    -3.4891     6.5508 H            1    LIG   0.0000
  43 H           -0.5469    -3.9475     8.6126 H            1    LIG   0.0000
  44 H           -0.8427    -2.9635    10.7608 H            1    LIG   0.0000
  45 H            0.2339    -2.0966     9.8913 H            1    LIG   0.0000
  46 H           -1.3007    -1.5633    10.0563 H            1    LIG   0.0000
  47 H           -2.6982    -4.1476     9.6137 H            1    LIG   0.0000
  48 H           -3.1562    -2.7474     8.9092 H            1    LIG   0.0000
  49 H           -2.8424    -4.0597     7.9894 H            1    LIG   0.0000
  50 H           -2.2764    -0.7810     8.1373 H            1    LIG   0.0000
  51 H           -1.9964     0.6358     6.2242 H            1    LIG   0.0000
  52 H           -1.7481     1.8431     4.5845 H            1    LIG   0.0000
  53 H            3.0810     1.9216    -0.6935 H            1    LIG   0.0000
  54 H            3.0572     0.2924    -0.8023 H            1    LIG   0.0000
  55 H            4.5644     3.5978    -0.3564 H            1    LIG   0.0000
  56 H            6.0543     4.8624    -1.7445 H            1    LIG   0.0000
  57 H            8.3706     1.4671    -2.3365 H            1    LIG   0.0000
  58 H            6.8753     0.2113    -0.9445 H            1    LIG   0.0000
@<TRIPOS>BOND
   1        1        2 1
   2        2        3 1
   3        3        4 2
   4        3        5 1
   5        5        6 1
   6        6        7 1
   7        7        8 am
   8        8        9 2
   9        8       10 1
  10       10       11 2
  11       11       12 1
  12       12       13 1
  13       13       14 ar
  14       14       15 ar
  15       15       16 ar
  16       16       17 1
  17       17       18 1
  18       17       19 1
  19       16       20 ar
  20       20       21 ar
  21       21       13 ar
  22       12       22 1
  23       22       23 2
  24       23       10 1
  25       23       24 1
  26        7       25 1
  27       25       26 1
  28       26        5 1
  29       26       27 1
  30       27       28 ar
  31       28       29 ar
  32       29       30 ar
  33       30       31 1
  34       30       32 ar
  35       32       33 ar
  36       33       27 ar
  37        5       34 1
  38       26       35 1
  39        1       36 1
  40        1       37 1
  41        1       38 1
  42        6       39 1
  43        6       40 1
  44       14       41 1
  45       15       42 1
  46       17       43 1
  47       18       44 1
  48       18       45 1
  49       18       46 1
  50       19       47 1
  51       19       48 1
  52       19       49 1
  53       20       50 1
  54       21       51 1
  55       22       52 1
  56       25       53 1
  57       25       54 1
  58       28       55 1
  59       29       56 1
  60       32       57 1
  61       33       58 1

@<TRIPOS>MOLECULE

  58   61
SMALL
USER_CHARGES
@<TRIPOS>ATOM
   1 C1           7.0953    -0.1189     3.7357 C.3          1    LIG   0.0000
   2 O2           5.9695     0.0780     2.8931 O.3          1    LIG   0.0000
   3 C3           5.6984     1.3248     2.5962 C.2          1    LIG   0.0000
   4 O4           6.3846     2.2079     3.0312 O.2          1    LIG   0.0000
   5 C5           4.5149     1.6527     1.7009 C.3          1    LIG   0.0000
   6 C6           3.2646     0.9517     2.1851 C.3          1    LIG   0.0000
   7 N7           2.4026     1.0000     1.0000 N.am         1    LIG   0.0000
   8 C8           1.0000     1.0000     1.0000 C.2          1    LIG   0.0000
   9 O9           0.4000     1.0587    -0.0376 O.2          1    LIG   0.0000
  10 C10          0.2758     0.9291     2.2523 C.2          1    LIG   0.0000
  11 N11          0.3393     1.7805     3.2377 N.2          1    LIG   0.0000
  12 N12         -0.4449     1.4197     4.2362 N.pl3        1    LIG   0.0000
  13 C13         -0.6095     2.1125     5.4418 C.ar         1    LIG   0.0000
  14 C14          0.0922     3.2939     5.6610 C.ar         1    LIG   0.0000
  15 C15         -0.0682     3.9865     6.8563 C.ar         1    LIG   0.0000
  16 C16         -0.9344     3.4818     7.8213 C.ar         1    LIG   0.0000
  17 C17         -1.1142     4.2336     9.1301 C.3          1    LIG   0.0000
  18 C18         -2.5722     4.6327     9.2890 C.3          1    LIG   0.0000
  19 C19         -0.7046     3.3390    10.2887 C.3          1    LIG   0.0000
  20 C20         -1.6345     2.3001     7.6027 C.ar         1    LIG   0.0000
  21 C21         -1.4746     1.6077     6.4070 C.ar         1    LIG   0.0000
  22 C22         -1.0801     0.2551     3.9125 C.2          1    LIG   0.0000
  23 C23         -0.6392    -0.0729     2.6634 C.2          1    LIG   0.0000
  24 O24         -1.0015    -1.1600     1.9435 O.3          1    LIG  -1.0000
  25 C25          3.2388     1.0678    -0.1974 C.3          1    LIG   0.0000
  26 C26          4.6545     1.0112     0.3411 C.3          1    LIG   0.0000
  27 C27          5.6035     1.8062    -0.5408 C.ar         1    LIG   0.0000
  28 C28          5.3601     3.1558    -0.7705 C.ar         1    LIG   0.0000
  29 C29          6.2232     3.8912    -1.5761 C.ar         1    LIG   0.0000
  30 C30          7.3244     3.2592    -2.1446 C.ar         1    LIG   0.0000
  31 Cl31         8.4331     4.1933    -3.1771 Cl           1    LIG   0.0000
  32 C32          7.5756     1.9095    -1.9215 C.ar         1    LIG   0.0000
  33 C33          6.7065     1.1823    -1.1134 C.ar         1    LIG   0.0000
  34 H            4.3750     2.6401     1.6267 H            1    LIG   0.0000
  35 H            4.9622     0.0636     0.4273 H            1    LIG   0.0000
  36 H            7.2192    -1.0970     3.9034 H            1    LIG   0.0000
  37 H            7.9123     0.2493     3.2919 H            1    LIG   0.0000
  38 H            6.9473     0.3522     4.6053 H            1    LIG   0.0000
  39 H            3.4590     0.0082     2.4536 H            1    LIG   0.0000
  40 H            2.8508     1.4387     2.9543 H            1    LIG   0.0000
  41 H            0.7119     3.6450     4.9591 H            1    LIG   0.0000
  42 H            0.4325     4.8364     7.0202 H            1    LIG   0.0000
  43 H           -0.5427     5.0542     9.1244 H            1    LIG   0.0000
  44 H           -2.6905     5.1273    10.1501 H            1    LIG   0.0000
  45 H           -2.8417     5.2212     8.5268 H            1    LIG   0.0000
  46 H           -3.1437     3.8121     9.2947 H            1    LIG   0.0000
  47 H           -0.8229     3.8336    11.1498 H            1    LIG   0.0000
  48 H           -1.2761     2.5184    10.2945 H            1    LIG   0.0000
  49 H            0.2547     3.0765    10.1842 H            1    LIG   0.0000
  50 H           -2.2530     1.9482     8.3053 H            1    LIG   0.0000
  51 H           -1.9752     0.7577     6.2433 H            1    LIG   0.0000
  52 H           -1.7332    -0.2525     4.4745 H            1    LIG   0.0000
  53 H            3.0810     1.9216    -0.6935 H            1    LIG   0.0000
  54 H            3.0572     0.2924    -0.8023 H            1    LIG   0.0000
  55 H            4.5644     3.5978    -0.3564 H            1    LIG   0.0000
  56 H            6.0543     4.8624    -1.7445 H            1    LIG   0.0000
  57 H            8.3706     1.4671    -2.3365 H            1    LIG   0.0000
  58 H            6.8753     0.2113    -0.9445 H            1    LIG   0.0000
@<TRIPOS>BOND
   1        1        2 1
   2        2        3 1
   3        3        4 2
   4        3        5 1
   5        5        6 1
   6        6        7 1
   7        7        8 am
   8        8        9 2
   9        8       10 1
  10       10       11 2
  11       11       12 1
  12       12       13 1
  13       13       14 ar
  14       14       15 ar
  15       15       16 ar
  16       16       17 1
  17       17       18 1
  18       17       19 1
  19       16       20 ar
  20       20       21 ar
  21       21       13 ar
  22       12       22 1
  23       22       23 2
  24       23       10 1
  25       23       24 1
  26        7       25 1
  27       25       26 1
  28       26        5 1
  29       26       27 1
  30       27       28 ar
  31       28       29 ar
  32       29       30 ar
  33       30       31 1
  34       30       32 ar
  35       32       33 ar
  36       33       27 ar
  37        5       34 1
  38       26       35 1
  39        1       36 1
  40        1       37 1
  41        1       38 1
  42        6       39 1
  43        6       40 1
  44       14       41 1
  45       15       42 1
  46       17       43 1
  47       18       44 1
  48       18       45 1
  49       18       46 1
  50       19       47 1
  51       19       48 1
  52       19       49 1
  53       20       50 1
  54       21       51 1
  55       22       52 1
  56       25       53 1
  57       25       54 1
  58       28       55 1
  59       29       56 1
  60       32       57 1
  61       33       58 1

@<TRIPOS>MOLECULE

  58   61
SMALL
USER_CHARGES
@<TRIPOS>ATOM
   1 C1           6.9381     1.3083     4.5178 C.3          1    LIG   0.0000
   2 O2           5.7041     1.6379     3.8973 O.3          1    LIG   0.0000
   3 C3           5.6791     1.5184     2.5930 C.2          1    LIG   0.0000
   4 O4           6.6588     1.1512     2.0052 O.2          1    LIG   0.0000
   5 C5           4.4099     1.8448     1.8244 C.3          1    LIG   0.0000
   6 C6           3.2617     0.9235     2.1854 C.3          1    LIG   0.0000
   7 N7           2.4015     1.0000     1.0000 N.am         1    LIG   0.0000
   8 C8           1.0000     1.0000     1.0000 C.2          1    LIG   0.0000
   9 O9           0.4000     1.0587    -0.0376 O.2          1    LIG   0.0000
  10 C10          0.2758     0.9291     2.2523 C.2          1    LIG   0.0000
  11 N11          0.3393    -0.0279     3.1354 N.2          1    LIG   0.0000
  12 N12         -0.4512     0.2139     4.1643 N.pl3        1    LIG   0.0000
  13 C13         -0.6171    -0.6114     5.2833 C.ar         1    LIG   0.0000
  14 C14          0.0903    -1.8063     5.3713 C.ar         1    LIG   0.0000
  15 C15         -0.0702    -2.6293     6.4808 C.ar         1    LIG   0.0000
  16 C16         -0.9432    -2.2410     7.4923 C.ar         1    LIG   0.0000
  17 C17         -1.1235    -3.1360     8.7077 C.3          1    LIG   0.0000
  18 C18         -1.6431    -4.4939     8.2645 C.3          1    LIG   0.0000
  19 C19          0.2125    -3.3098     9.4116 C.3          1    LIG   0.0000
  20 C20         -1.6514    -1.0473     7.4035 C.ar         1    LIG   0.0000
  21 C21         -1.4905    -0.2239     6.2941 C.ar         1    LIG   0.0000
  22 C22         -1.0904     1.4051     3.9716 C.2          1    LIG   0.0000
  23 C23         -0.6460     1.8741     2.7696 C.2          1    LIG   0.0000
  24 O24         -1.0183     3.0291     2.1708 O.3          1    LIG  -1.0000
  25 C25          3.2796     1.0664    -0.1736 C.3          1    LIG   0.0000
  26 C26          4.5830     1.6444     0.3334 C.3          1    LIG   0.0000
  27 C27          4.9115     2.9748    -0.3244 C.ar         1    LIG   0.0000
  28 C28          4.0550     4.0566    -0.1521 C.ar         1    LIG   0.0000
  29 C29          4.3477     5.2778    -0.7503 C.ar         1    LIG   0.0000
  30 C30          5.5013     5.3979    -1.5184 C.ar         1    LIG   0.0000
  31 Cl31         5.8823     6.9571    -2.2873 Cl           1    LIG   0.0000
  32 C32          6.3636     4.3212    -1.6972 C.ar         1    LIG   0.0000
  33 C33          6.0624     3.1036    -1.0941 C.ar         1    LIG   0.0000
  34 H            4.1458     2.7923     2.0046 H            1    LIG   0.0000
  35 H            5.3252     0.9954     0.1663 H            1    LIG   0.0000
  36 H            6.8569     1.4306     5.5070 H            1    LIG   0.0000
  37 H            7.1680     0.3559     4.3174 H            1    LIG   0.0000
  38 H            7.6583     1.9062     4.1660 H            1    LIG   0.0000
  39 H            3.5834    -0.0110     2.3378 H            1    LIG   0.0000
  40 H            2.7818     1.2479     3.0006 H            1    LIG   0.0000
  41 H            0.7140    -2.0734     4.6367 H            1    LIG   0.0000
  42 H            0.4355    -3.4891     6.5508 H            1    LIG   0.0000
  43 H           -1.7792    -2.7171     9.3359 H            1    LIG   0.0000
  44 H           -1.7617    -5.0827     9.0640 H            1    LIG   0.0000
  45 H           -2.5220    -4.3796     7.8014 H            1    LIG   0.0000
  46 H           -0.9874    -4.9129     7.6363 H            1    LIG   0.0000
  47 H            0.0939    -3.8986    10.2111 H            1    LIG   0.0000
  48 H            0.8682    -3.7288     8.7834 H            1    LIG   0.0000
  49 H            0.5543    -2.4165     9.7032 H            1    LIG   0.0000
  50 H           -2.2764    -0.7810     8.1373 H            1    LIG   0.0000
  51 H           -1.9964     0.6358     6.2242 H            1    LIG   0.0000
  52 H           -1.7481     1.8431     4.5845 H            1    LIG   0.0000
  53 H            2.8829     1.6592    -0.8745 H            1    LIG   0.0000
  54 H            3.4260     0.1530    -0.5534 H            1    LIG   0.0000
  55 H            3.2286     3.9566     0.4019 H            1    LIG   0.0000
  56 H            3.7363     6.0599    -0.6296 H            1    LIG   0.0000
  57 H            7.1895     4.4208    -2.2521 H            1    LIG   0.0000
  58 H            6.6737     2.3214    -1.2143 H            1    LIG   0.0000
@<TRIPOS>BOND
   1        1        2 1
   2        2        3 1
   3        3        4 2
   4        3        5 1
   5        5        6 1
   6        6        7 1
   7        7        8 am
   8        8        9 2
   9        8       10 1
  10       10       11 2
  11       11       12 1
  12       12       13 1
  13       13       14 ar
  14       14       15 ar
  15       15       16 ar
  16       16       17 1
  17       17       18 1
  18       17       19 1
  19       16       20 ar
  20       20       21 ar
  21       21       13 ar
  22       12       22 1
  23       22       23 2
  24       23       10 1
  25       23       24 1
  26        7       25 1
  27       25       26 1
  28       26        5 1
  29       26       27 1
  30       27       28 ar
  31       28       29 ar
  32       29       30 ar
  33       30       31 1
  34       30       32 ar
  35       32       33 ar
  36       33       27 ar
  37        5       34 1
  38       26       35 1
  39        1       36 1
  40        1       37 1
  41        1       38 1
  42        6       39 1
  43        6       40 1
  44       14       41 1
  45       15       42 1
  46       17       43 1
  47       18       44 1
  48       18       45 1
  49       18       46 1
  50       19       47 1
  51       19       48 1
  52       19       49 1
  53       20       50 1
  54       21       51 1
  55       22       52 1
  56       25       53 1
  57       25       54 1
  58       28       55 1
  59       29       56 1
  60       32       57 1
  61       33       58 1

@<TRIPOS>MOLECULE

  58   61
SMALL
USER_CHARGES
@<TRIPOS>ATOM
   1 C1           6.9381     1.3083     4.5178 C.3          1    LIG   0.0000
   2 O2           5.7041     1.6379     3.8973 O.3          1    LIG   0.0000
   3 C3           5.6791     1.5184     2.5930 C.2          1    LIG   0.0000
   4 O4           6.6588     1.1512     2.0052 O.2          1    LIG   0.0000
   5 C5           4.4099     1.8448     1.8244 C.3          1    LIG   0.0000
   6 C6           3.2617     0.9235     2.1854 C.3          1    LIG   0.0000
   7 N7           2.4015     1.0000     1.0000 N.am         1    LIG   0.0000
   8 C8           1.0000     1.0000     1.0000 C.2          1    LIG   0.0000
   9 O9           0.4000     1.0587    -0.0376 O.2          1    LIG   0.0000
  10 C10          0.2758     0.9291     2.2523 C.2          1    LIG   0.0000
  11 N11          0.3393     1.7805     3.2377 N.2          1    LIG   0.0000
  12 N12         -0.4449     1.4197     4.2362 N.pl3        1    LIG   0.0000
  13 C13         -0.6095     2.1125     5.4418 C.ar         1    LIG   0.0000
  14 C14          0.0922     3.2939     5.6610 C.ar         1    LIG   0.0000
  15 C15         -0.0682     3.9865     6.8563 C.ar         1    LIG   0.0000
  16 C16         -0.9344     3.4818     7.8213 C.ar         1    LIG   0.0000
  17 C17         -1.1142     4.2336     9.1301 C.3          1    LIG   0.0000
  18 C18          0.2240     4.3357     9.8438 C.3          1    LIG   0.0000
  19 C19         -1.6437     5.6294     8.8441 C.3          1    LIG   0.0000
  20 C20         -1.6345     2.3001     7.6027 C.ar         1    LIG   0.0000
  21 C21         -1.4746     1.6077     6.4070 C.ar         1    LIG   0.0000
  22 C22         -1.0801     0.2551     3.9125 C.2          1    LIG   0.0000
  23 C23         -0.6392    -0.0729     2.6634 C.2          1    LIG   0.0000
  24 O24         -1.0015    -1.1600     1.9435 O.3          1    LIG  -1.0000
  25 C25          3.2796     1.0664    -0.1736 C.3          1    LIG   0.0000
  26 C26          4.5830     1.6444     0.3334 C.3          1    LIG   0.0000
  27 C27          4.9115     2.9748    -0.3244 C.ar         1    LIG   0.0000
  28 C28          4.0550     4.0566    -0.1521 C.ar         1    LIG   0.0000
  29 C29          4.3477     5.2778    -0.7503 C.ar         1    LIG   0.0000
  30 C30          5.5013     5.3979    -1.5184 C.ar         1    LIG   0.0000
  31 Cl31         5.8823     6.9571    -2.2873 Cl           1    LIG   0.0000
  32 C32          6.3636     4.3212    -1.6972 C.ar         1    LIG   0.0000
  33 C33          6.0624     3.1036    -1.0941 C.ar         1    LIG   0.0000
  34 H            4.1458     2.7923     2.0046 H            1    LIG   0.0000
  35 H            5.3252     0.9954     0.1663 H            1    LIG   0.0000
  36 H            6.8569     1.4306     5.5070 H            1    LIG   0.0000
  37 H            7.1680     0.3559     4.3174 H            1    LIG   0.0000
  38 H            7.6583     1.9062     4.1660 H            1    LIG   0.0000
  39 H            3.5834    -0.0110     2.3378 H            1    LIG   0.0000
  40 H            2.7818     1.2479     3.0006 H            1    LIG   0.0000
  41 H            0.7119     3.6450     4.9591 H            1    LIG   0.0000
  42 H            0.4325     4.8364     7.0202 H            1    LIG   0.0000
  43 H           -1.7645     3.7427     9.7099 H            1    LIG   0.0000
  44 H            0.1057     4.8303    10.7048 H            1    LIG   0.0000
  45 H            0.5723     3.4175    10.0320 H            1    LIG   0.0000
  46 H            0.8743     4.8266     9.2640 H            1    LIG   0.0000
  47 H           -1.7620     6.1240     9.7051 H            1    LIG   0.0000
  48 H           -0.9933     6.1203     8.2643 H            1    LIG   0.0000
  49 H           -2.5240     5.5622     8.3746 H            1    LIG   0.0000
  50 H           -2.2530     1.9482     8.3053 H            1    LIG   0.0000
  51 H           -1.9752     0.7577     6.2433 H            1    LIG   0.0000
  52 H           -1.7332    -0.2525     4.4745 H            1    LIG   0.0000
  53 H            2.8829     1.6592    -0.8745 H            1    LIG   0.0000
  54 H            3.4260     0.1530    -0.5534 H            1    LIG   0.0000
  55 H            3.2286     3.9566     0.4019 H            1    LIG   0.0000
  56 H            3.7363     6.0599    -0.6296 H            1    LIG   0.0000
  57 H            7.1895     4.4208    -2.2521 H            1    LIG   0.0000
  58 H            6.6737     2.3214    -1.2143 H            1    LIG   0.0000
@<TRIPOS>BOND
   1        1        2 1
   2        2        3 1
   3        3        4 2
   4        3        5 1
   5        5        6 1
   6        6        7 1
   7        7        8 am
   8        8        9 2
   9        8       10 1
  10       10       11 2
  11       11       12 1
  12       12       13 1
  13       13       14 ar
  14       14       15 ar
  15       15       16 ar
  16       16       17 1
  17       17       18 1
  18       17       19 1
  19       16       20 ar
  20       20       21 ar
  21       21       13 ar
  22       12       22 1
  23       22       23 2
  24       23       10 1
  25       23       24 1
  26        7       25 1
  27       25       26 1
  28       26        5 1
  29       26       27 1
  30       27       28 ar
  31       28       29 ar
  32       29       30 ar
  33       30       31 1
  34       30       32 ar
  35       32       33 ar
  36       33       27 ar
  37        5       34 1
  38       26       35 1
  39        1       36 1
  40        1       37 1
  41        1       38 1
  42        6       39 1
  43        6       40 1
  44       14       41 1
  45       15       42 1
  46       17       43 1
  47       18       44 1
  48       18       45 1
  49       18       46 1
  50       19       47 1
  51       19       48 1
  52       19       49 1
  53       20       50 1
  54       21       51 1
  55       22       52 1
  56       25       53 1
  57       25       54 1
  58       28       55 1
  59       29       56 1
  60       32       57 1
  61       33       58 1

@<TRIPOS>MOLECULE

  58   61
SMALL
USER_CHARGES
@<TRIPOS>ATOM
   1 C1           6.9381     0.6917    -2.5178 C.3          1    LIG   0.0000
   2 O2           5.7041     0.3621    -1.8973 O.3          1    LIG   0.0000
   3 C3           5.6791     0.4816    -0.5930 C.2          1    LIG   0.0000
   4 O4           6.6588     0.8488    -0.0052 O.2          1    LIG   0.0000
   5 C5           4.4099     0.1552     0.1756 C.3          1    LIG   0.0000
   6 C6           3.2617     1.0765    -0.1854 C.3          1    LIG   0.0000
   7 N7           2.4015     1.0000     1.0000 N.am         1    LIG   0.0000
   8 C8           1.0000     1.0000     1.0000 C.2          1    LIG   0.0000
   9 O9           0.4000     1.0587    -0.0376 O.2          1    LIG   0.0000
  10 C10          0.2758     0.9291     2.2523 C.2          1    LIG   0.0000
  11 N11          0.3393    -0.0279     3.1354 N.2          1    LIG   0.0000
  12 N12         -0.4512     0.2139     4.1643 N.pl3        1    LIG   0.0000
  13 C13         -0.6171    -0.6114     5.2833 C.ar         1    LIG   0.0000
  14 C14          0.0903    -1.8063     5.3713 C.ar         1    LIG   0.0000
  15 C15         -0.0702    -2.6293     6.4808 C.ar         1    LIG   0.0000
  16 C16         -0.9432    -2.2410     7.4923 C.ar         1    LIG   0.0000
  17 C17         -1.1235    -3.1360     8.7077 C.3          1    LIG   0.0000
  18 C18         -1.6431    -4.4939     8.2645 C.3          1    LIG   0.0000
  19 C19          0.2125    -3.3098     9.4116 C.3          1    LIG   0.0000
  20 C20         -1.6514    -1.0473     7.4035 C.ar         1    LIG   0.0000
  21 C21         -1.4905    -0.2239     6.2941 C.ar         1    LIG   0.0000
  22 C22         -1.0904     1.4051     3.9716 C.2          1    LIG   0.0000
  23 C23         -0.6460     1.8741     2.7696 C.2          1    LIG   0.0000
  24 O24         -1.0183     3.0291     2.1708 O.3          1    LIG  -1.0000
  25 C25          3.2796     0.9336     2.1736 C.3          1    LIG   0.0000
  26 C26          4.5830     0.3556     1.6666 C.3          1    LIG   0.0000
  27 C27          4.9115    -0.9748     2.3244 C.ar         1    LIG   0.0000
  28 C28          4.0550    -2.0566     2.1521 C.ar         1    LIG   0.0000
  29 C29          4.3477    -3.2778     2.7503 C.ar         1    LIG   0.0000
  30 C30          5.5013    -3.3979     3.5184 C.ar         1    LIG   0.0000
  31 Cl31         5.8823    -4.9571     4.2873 Cl           1    LIG   0.0000
  32 C32          6.3636    -2.3212     3.6972 C.ar         1    LIG   0.0000
  33 C33          6.0624    -1.1036     3.0941 C.ar         1    LIG   0.0000
  34 H            4.1458    -0.7923    -0.0046 H            1    LIG   0.0000
  35 H            5.3252     1.0046     1.8337 H            1    LIG   0.0000
  36 H            6.8569     0.5694    -3.5070 H            1    LIG   0.0000
  37 H            7.1680     1.6441    -2.3174 H            1    LIG   0.0000
  38 H            7.6583     0.0938    -2.1660 H            1    LIG   0.0000
  39 H            3.5834     2.0110    -0.3378 H            1    LIG   0.0000
  40 H            2.7818     0.7521    -1.0006 H            1    LIG   0.0000
  41 H            0.7140    -2.0734     4.6367 H            1    LIG   0.0000
  42 H            0.4355    -3.4891     6.5508 H            1    LIG   0.0000
  43 H           -1.7792    -2.7171     9.3359 H            1    LIG   0.0000
  44 H           -1.7617    -5.0827     9.0640 H            1    LIG   0.0000
  45 H           -2.5220    -4.3796     7.8014 H            1    LIG   0.0000
  46 H           -0.9874    -4.9129     7.6363 H            1    LIG   0.0000
  47 H            0.0939    -3.8986    10.2111 H            1    LIG   0.0000
  48 H            0.8682    -3.7288     8.7834 H            1    LIG   0.0000
  49 H            0.5543    -2.4165     9.7032 H            1    LIG   0.0000
  50 H           -2.2764    -0.7810     8.1373 H            1    LIG   0.0000
  51 H           -1.9964     0.6358     6.2242 H            1    LIG   0.0000
  52 H           -1.7481     1.8431     4.5845 H            1    LIG   0.0000
  53 H            2.8829     0.3408     2.8745 H            1    LIG   0.0000
  54 H            3.4260     1.8470     2.5534 H            1    LIG   0.0000
  55 H            3.2286    -1.9566     1.5981 H            1    LIG   0.0000
  56 H            3.7363    -4.0599     2.6296 H            1    LIG   0.0000
  57 H            7.1895    -2.4208     4.2521 H            1    LIG   0.0000
  58 H            6.6737    -0.3214     3.2143 H            1    LIG   0.0000
@<TRIPOS>BOND
   1        1        2 1
   2        2        3 1
   3        3        4 2
   4        3        5 1
   5        5        6 1
   6        6        7 1
   7        7        8 am
   8        8        9 2
   9        8       10 1
  10       10       11 2
  11       11       12 1
  12       12       13 1
  13       13       14 ar
  14       14       15 ar
  15       15       16 ar
  16       16       17 1
  17       17       18 1
  18       17       19 1
  19       16       20 ar
  20       20       21 ar
  21       21       13 ar
  22       12       22 1
  23       22       23 2
  24       23       10 1
  25       23       24 1
  26        7       25 1
  27       25       26 1
  28       26        5 1
  29       26       27 1
  30       27       28 ar
  31       28       29 ar
  32       29       30 ar
  33       30       31 1
  34       30       32 ar
  35       32       33 ar
  36       33       27 ar
  37        5       34 1
  38       26       35 1
  39        1       36 1
  40        1       37 1
  41        1       38 1
  42        6       39 1
  43        6       40 1
  44       14       41 1
  45       15       42 1
  46       17       43 1
  47       18       44 1
  48       18       45 1
  49       18       46 1
  50       19       47 1
  51       19       48 1
  52       19       49 1
  53       20       50 1
  54       21       51 1
  55       22       52 1
  56       25       53 1
  57       25       54 1
  58       28       55 1
  59       29       56 1
  60       32       57 1
  61       33       58 1

@<TRIPOS>MOLECULE

  58   61
SMALL
USER_CHARGES
@<TRIPOS>ATOM
   1 C1           6.9381     0.6917    -2.5178 C.3          1    LIG   0.0000
   2 O2           5.7041     0.3621    -1.8973 O.3          1    LIG   0.0000
   3 C3           5.6791     0.4816    -0.5930 C.2          1    LIG   0.0000
   4 O4           6.6588     0.8488    -0.0052 O.2          1    LIG   0.0000
   5 C5           4.4099     0.1552     0.1756 C.3          1    LIG   0.0000
   6 C6           3.2617     1.0765    -0.1854 C.3          1    LIG   0.0000
   7 N7           2.4015     1.0000     1.0000 N.am         1    LIG   0.0000
   8 C8           1.0000     1.0000     1.0000 C.2          1    LIG   0.0000
   9 O9           0.4000     1.0587    -0.0376 O.2          1    LIG   0.0000
  10 C10          0.2758     0.9291     2.2523 C.2          1    LIG   0.0000
  11 N11         -0.8978     0.3946     2.4439 N.2          1    LIG   0.0000
  12 N12         -1.2749     0.5014     3.7043 N.pl3        1    LIG   0.0000
  13 C13         -2.4791     0.0320     4.2429 C.ar         1    LIG   0.0000
  14 C14         -3.3985    -0.6129     3.4214 C.ar         1    LIG   0.0000
  15 C15         -4.5957    -1.0818     3.9514 C.ar         1    LIG   0.0000
  16 C16         -4.8565    -0.8959     5.3054 C.ar         1    LIG   0.0000
  17 C17         -6.1633    -1.4057     5.8912 C.3          1    LIG   0.0000
  18 C18         -7.3306    -0.7320     5.1884 C.3          1    LIG   0.0000
  19 C19         -6.2537    -2.9103     5.6950 C.3          1    LIG   0.0000
  20 C20         -3.9382    -0.2499     6.1262 C.ar         1    LIG   0.0000
  21 C21         -2.7406     0.2185     5.5963 C.ar         1    LIG   0.0000
  22 C22         -0.3017     1.1458     4.4130 C.2          1    LIG   0.0000
  23 C23          0.6871     1.4254     3.5152 C.2          1    LIG   0.0000
  24 O24          1.8506     2.0657     3.7753 O.3          1    LIG  -1.0000
  25 C25          3.2796     0.9336     2.1736 C.3          1    LIG   0.0000
  26 C26          4.5830     0.3556     1.6666 C.3          1    LIG   0.0000
  27 C27          4.9115    -0.9748     2.3244 C.ar         1    LIG   0.0000
  28 C28          4.0550    -2.0566     2.1521 C.ar         1    LIG   0.0000
  29 C29          4.3477    -3.2778     2.7503 C.ar         1    LIG   0.0000
  30 C30          5.5013    -3.3979     3.5184 C.ar         1    LIG   0.0000
  31 Cl31         5.8823    -4.9571     4.2873 Cl           1    LIG   0.0000
  32 C32          6.3636    -2.3212     3.6972 C.ar         1    LIG   0.0000
  33 C33          6.0624    -1.1036     3.0941 C.ar         1    LIG   0.0000
  34 H            4.1458    -0.7923    -0.0046 H            1    LIG   0.0000
  35 H            5.3252     1.0046     1.8337 H            1    LIG   0.0000
  36 H            6.8569     0.5694    -3.5070 H            1    LIG   0.0000
  37 H            7.1680     1.6441    -2.3174 H            1    LIG   0.0000
  38 H            7.6583     0.0938    -2.1660 H            1    LIG   0.0000
  39 H            3.5834     2.0110    -0.3378 H            1    LIG   0.0000
  40 H            2.7818     0.7521    -1.0006 H            1    LIG   0.0000
  41 H           -3.1984    -0.7393     2.4498 H            1    LIG   0.0000
  42 H           -5.2606    -1.5467     3.3668 H            1    LIG   0.0000
  43 H           -6.1956    -1.1945     6.8681 H            1    LIG   0.0000
  44 H           -8.1903    -1.0674     5.5737 H            1    LIG   0.0000
  45 H           -7.2711     0.2578     5.3175 H            1    LIG   0.0000
  46 H           -7.2984    -0.9433     4.2115 H            1    LIG   0.0000
  47 H           -7.1134    -3.2457     6.0803 H            1    LIG   0.0000
  48 H           -6.2215    -3.1215     4.7181 H            1    LIG   0.0000
  49 H           -5.4858    -3.3535     6.1574 H            1    LIG   0.0000
  50 H           -4.1390    -0.1221     7.0975 H            1    LIG   0.0000
  51 H           -2.0758     0.6836     6.1810 H            1    LIG   0.0000
  52 H           -0.3116     1.3670     5.3882 H            1    LIG   0.0000
  53 H            2.8829     0.3408     2.8745 H            1    LIG   0.0000
  54 H            3.4260     1.8470     2.5534 H            1    LIG   0.0000
  55 H            3.2286    -1.9566     1.5981 H            1    LIG   0.0000
  56 H            3.7363    -4.0599     2.6296 H            1    LIG   0.0000
  57 H            7.1895    -2.4208     4.2521 H            1    LIG   0.0000
  58 H            6.6737    -0.3214     3.2143 H            1    LIG   0.0000
@<TRIPOS>BOND
   1        1        2 1
   2        2        3 1
   3        3        4 2
   4        3        5 1
   5        5        6 1
   6        6        7 1
   7        7        8 am
   8        8        9 2
   9        8       10 1
  10       10       11 2
  11       11       12 1
  12       12       13 1
  13       13       14 ar
  14       14       15 ar
  15       15       16 ar
  16       16       17 1
  17       17       18 1
  18       17       19 1
  19       16       20 ar
  20       20       21 ar
  21       21       13 ar
  22       12       22 1
  23       22       23 2
  24       23       10 1
  25       23       24 1
  26        7       25 1
  27       25       26 1
  28       26        5 1
  29       26       27 1
  30       27       28 ar
  31       28       29 ar
  32       29       30 ar
  33       30       31 1
  34       30       32 ar
  35       32       33 ar
  36       33       27 ar
  37        5       34 1
  38       26       35 1
  39        1       36 1
  40        1       37 1
  41        1       38 1
  42        6       39 1
  43        6       40 1
  44       14       41 1
  45       15       42 1
  46       17       43 1
  47       18       44 1
  48       18       45 1
  49       18       46 1
  50       19       47 1
  51       19       48 1
  52       19       49 1
  53       20       50 1
  54       21       51 1
  55       22       52 1
  56       25       53 1
  57       25       54 1
  58       28       55 1
  59       29       56 1
  60       32       57 1
  61       33       58 1

@<TRIPOS>MOLECULE

  58   61
SMALL
USER_CHARGES
@<TRIPOS>ATOM
   1 C1           7.3785     1.8848    -1.2838 C.3          1    LIG   0.0000
   2 O2           6.1925     1.6851    -0.5289 O.3          1    LIG   0.0000
   3 C3           5.6791     0.4816    -0.5930 C.2          1    LIG   0.0000
   4 O4           6.2114    -0.3631    -1.2587 O.2          1    LIG   0.0000
   5 C5           4.4099     0.1552     0.1756 C.3          1    LIG   0.0000
   6 C6           3.2617     1.0765    -0.1854 C.3          1    LIG   0.0000
   7 N7           2.4015     1.0000     1.0000 N.am         1    LIG   0.0000
   8 C8           1.0000     1.0000     1.0000 C.2          1    LIG   0.0000
   9 O9           0.4000     1.0587    -0.0376 O.2          1    LIG   0.0000
  10 C10          0.2758     0.9291     2.2523 C.2          1    LIG   0.0000
  11 N11          0.3393     1.7805     3.2377 N.2          1    LIG   0.0000
  12 N12         -0.4449     1.4197     4.2362 N.pl3        1    LIG   0.0000
  13 C13         -0.6095     2.1125     5.4418 C.ar         1    LIG   0.0000
  14 C14          0.0922     3.2939     5.6610 C.ar         1    LIG   0.0000
  15 C15         -0.0682     3.9865     6.8563 C.ar         1    LIG   0.0000
  16 C16         -0.9344     3.4818     7.8213 C.ar         1    LIG   0.0000
  17 C17         -1.1142     4.2336     9.1301 C.3          1    LIG   0.0000
  18 C18          0.2240     4.3357     9.8438 C.3          1    LIG   0.0000
  19 C19         -1.6437     5.6294     8.8441 C.3          1    LIG   0.0000
  20 C20         -1.6345     2.3001     7.6027 C.ar         1    LIG   0.0000
  21 C21         -1.4746     1.6077     6.4070 C.ar         1    LIG   0.0000
  22 C22         -1.0801     0.2551     3.9125 C.2          1    LIG   0.0000
  23 C23         -0.6392    -0.0729     2.6634 C.2          1    LIG   0.0000
  24 O24         -1.0015    -1.1600     1.9435 O.3          1    LIG  -1.0000
  25 C25          3.2796     0.9336     2.1736 C.3          1    LIG   0.0000
  26 C26          4.5830     0.3556     1.6666 C.3          1    LIG   0.0000
  27 C27          4.9115    -0.9748     2.3244 C.ar         1    LIG   0.0000
  28 C28          4.0550    -2.0566     2.1521 C.ar         1    LIG   0.0000
  29 C29          4.3477    -3.2778     2.7503 C.ar         1    LIG   0.0000
  30 C30          5.5013    -3.3979     3.5184 C.ar         1    LIG   0.0000
  31 Cl31         5.8823    -4.9571     4.2873 Cl           1    LIG   0.0000
  32 C32          6.3636    -2.3212     3.6972 C.ar         1    LIG   0.0000
  33 C33          6.0624    -1.1036     3.0941 C.ar         1    LIG   0.0000
  34 H            4.1458    -0.7923    -0.0046 H            1    LIG   0.0000
  35 H            5.3252     1.0046     1.8337 H            1    LIG   0.0000
  36 H            7.6907     2.8281    -1.1709 H            1    LIG   0.0000
  37 H            8.0881     1.2581    -0.9619 H            1    LIG   0.0000
  38 H            7.1920     1.7089    -2.2504 H            1    LIG   0.0000
  39 H            3.5834     2.0110    -0.3378 H            1    LIG   0.0000
  40 H            2.7818     0.7521    -1.0006 H            1    LIG   0.0000
  41 H            0.7119     3.6450     4.9591 H            1    LIG   0.0000
  42 H            0.4325     4.8364     7.0202 H            1    LIG   0.0000
  43 H           -1.7645     3.7427     9.7099 H            1    LIG   0.0000
  44 H            0.1057     4.8303    10.7048 H            1    LIG   0.0000
  45 H            0.5723     3.4175    10.0320 H            1    LIG   0.0000
  46 H            0.8743     4.8266     9.2640 H            1    LIG   0.0000
  47 H           -1.7620     6.1240     9.7051 H            1    LIG   0.0000
  48 H           -0.9933     6.1203     8.2643 H            1    LIG   0.0000
  49 H           -2.5240     5.5622     8.3746 H            1    LIG   0.0000
  50 H           -2.2530     1.9482     8.3053 H            1    LIG   0.0000
  51 H           -1.9752     0.7577     6.2433 H            1    LIG   0.0000
  52 H           -1.7332    -0.2525     4.4745 H            1    LIG   0.0000
  53 H            2.8829     0.3408     2.8745 H            1    LIG   0.0000
  54 H            3.4260     1.8470     2.5534 H            1    LIG   0.0000
  55 H            3.2286    -1.9566     1.5981 H            1    LIG   0.0000
  56 H            3.7363    -4.0599     2.6296 H            1    LIG   0.0000
  57 H            7.1895    -2.4208     4.2521 H            1    LIG   0.0000
  58 H            6.6737    -0.3214     3.2143 H            1    LIG   0.0000
@<TRIPOS>BOND
   1        1        2 1
   2        2        3 1
   3        3        4 2
   4        3        5 1
   5        5        6 1
   6        6        7 1
   7        7        8 am
   8        8        9 2
   9        8       10 1
  10       10       11 2
  11       11       12 1
  12       12       13 1
  13       13       14 ar
  14       14       15 ar
  15       15       16 ar
  16       16       17 1
  17       17       18 1
  18       17       19 1
  19       16       20 ar
  20       20       21 ar
  21       21       13 ar
  22       12       22 1
  23       22       23 2
  24       23       10 1
  25       23       24 1
  26        7       25 1
  27       25       26 1
  28       26        5 1
  29       26       27 1
  30       27       28 ar
  31       28       29 ar
  32       29       30 ar
  33       30       31 1
  34       30       32 ar
  35       32       33 ar
  36       33       27 ar
  37        5       34 1
  38       26       35 1
  39        1       36 1
  40        1       37 1
  41        1       38 1
  42        6       39 1
  43        6       40 1
  44       14       41 1
  45       15       42 1
  46       17       43 1
  47       18       44 1
  48       18       45 1
  49       18       46 1
  50       19       47 1
  51       19       48 1
  52       19       49 1
  53       20       50 1
  54       21       51 1
  55       22       52 1
  56       25       53 1
  57       25       54 1
  58       28       55 1
  59       29       56 1
  60       32       57 1
  61       33       58 1

