@<TRIPOS>MOLECULE
*****
 58 61 0 0 0
SMALL
USER_CHARGES

@<TRIPOS>ATOM
      1 C1          7.0953   -0.1189    3.7357 C.3     1  LIG1        0.0000
      2 O2          5.9695    0.0780    2.8931 O.3     1  LIG1        0.0000
      3 C3          5.6984    1.3248    2.5962 C.2     1  LIG1        0.0000
      4 O4          6.3846    2.2079    3.0312 O.2     1  LIG1        0.0000
      5 C5          4.5149    1.6527    1.7009 C.3     1  LIG1        0.0000
      6 C6          3.2646    0.9517    2.1851 C.3     1  LIG1        0.0000
      7 N7          2.4026    1.0000    1.0000 N.am    1  LIG1        0.0000
      8 C8          1.0000    1.0000    1.0000 C.2     1  LIG1        0.0000
      9 O9          0.4000    1.0587   -0.0376 O.2     1  LIG1        0.0000
     10 C10         0.2758    0.9291    2.2523 C.2     1  LIG1        0.0000
     11 N11         0.3393   -0.0279    3.1354 N.2     1  LIG1        0.0000
     12 N12        -0.4512    0.2139    4.1643 N.pl3   1  LIG1        0.0000
     13 C13        -0.6171   -0.6114    5.2833 C.3     1  LIG1        0.0000
     14 C14         0.0903   -1.8063    5.3713 C.3     1  LIG1        0.0000
     15 C15        -0.0702   -2.6293    6.4808 C.3     1  LIG1        0.0000
     16 C16        -0.9432   -2.2410    7.4923 C.3     1  LIG1        0.0000
     17 C17        -1.1235   -3.1360    8.7077 C.3     1  LIG1        0.0000
     18 C18        -0.7241   -2.3747    9.9612 C.3     1  LIG1        0.0000
     19 C19        -2.5796   -3.5588    8.8141 C.3     1  LIG1        0.0000
     20 C20        -1.6514   -1.0473    7.4035 C.3     1  LIG1        0.0000
     21 C21        -1.4905   -0.2239    6.2941 C.3     1  LIG1        0.0000
     22 C22        -1.0904    1.4051    3.9716 C.2     1  LIG1        0.0000
     23 C23        -0.6460    1.8741    2.7696 C.2     1  LIG1        0.0000
     24 O24        -1.0183    3.0291    2.1708 O.2     1  LIG1       -1.0000
     25 C25         3.2388    1.0678   -0.1974 C.3     1  LIG1        0.0000
     26 C26         4.6545    1.0112    0.3411 C.3     1  LIG1        0.0000
     27 C27         5.6035    1.8062   -0.5408 C.3     1  LIG1        0.0000
     28 C28         5.3601    3.1558   -0.7705 C.3     1  LIG1        0.0000
     29 C29         6.2232    3.8912   -1.5761 C.3     1  LIG1        0.0000
     30 C30         7.3244    3.2592   -2.1446 C.3     1  LIG1        0.0000
     31 Cl31        8.4331    4.1933   -3.1771 Cl      1  LIG1        0.0000
     32 C32         7.5756    1.9095   -1.9215 C.3     1  LIG1        0.0000
     33 C33         6.7065    1.1823   -1.1134 C.3     1  LIG1        0.0000
     34 H           4.3750    2.6401    1.6267 H       1  LIG1        0.0000
     35 H           4.9622    0.0636    0.4273 H       1  LIG1        0.0000
     36 H           7.2192   -1.0970    3.9034 H       1  LIG1        0.0000
     37 H           7.9123    0.2493    3.2919 H       1  LIG1        0.0000
     38 H           6.9473    0.3522    4.6053 H       1  LIG1        0.0000
     39 H           3.4590    0.0082    2.4536 H       1  LIG1        0.0000
     40 H           2.8508    1.4387    2.9543 H       1  LIG1        0.0000
     41 H           0.7140   -2.0734    4.6367 H       1  LIG1        0.0000
     42 H           0.4355   -3.4891    6.5508 H       1  LIG1        0.0000
     43 H          -0.5469   -3.9475    8.6126 H       1  LIG1        0.0000
     44 H          -0.8427   -2.9635   10.7608 H       1  LIG1        0.0000
     45 H           0.2339   -2.0966    9.8913 H       1  LIG1        0.0000
     46 H          -1.3007   -1.5633   10.0563 H       1  LIG1        0.0000
     47 H          -2.6982   -4.1476    9.6137 H       1  LIG1        0.0000
     48 H          -3.1562   -2.7474    8.9092 H       1  LIG1        0.0000
     49 H          -2.8424   -4.0597    7.9894 H       1  LIG1        0.0000
     50 H          -2.2764   -0.7810    8.1373 H       1  LIG1        0.0000
     51 H          -1.9964    0.6358    6.2242 H       1  LIG1        0.0000
     52 H          -1.7481    1.8431    4.5845 H       1  LIG1        0.0000
     53 H           3.0810    1.9216   -0.6935 H       1  LIG1        0.0000
     54 H           3.0572    0.2924   -0.8023 H       1  LIG1        0.0000
     55 H           4.5644    3.5978   -0.3564 H       1  LIG1        0.0000
     56 H           6.0543    4.8624   -1.7445 H       1  LIG1        0.0000
     57 H           8.3706    1.4671   -2.3365 H       1  LIG1        0.0000
     58 H           6.8753    0.2113   -0.9445 H       1  LIG1        0.0000
@<TRIPOS>UNITY_ATOM_ATTR
24 1
charge -1
@<TRIPOS>BOND
     1     1     2    1
     2     2     3    1
     3     3     4    2
     4     3     5    1
     5     5     6    1
     6     6     7    1
     7     7     8   am
     8     8     9    2
     9     8    10    1
    10    10    11    2
    11    11    12    1
    12    12    13    1
    13    13    14   ar
    14    14    15   ar
    15    15    16   ar
    16    16    17    1
    17    17    18    1
    18    17    19    1
    19    16    20   ar
    20    20    21   ar
    21    21    13   ar
    22    12    22    1
    23    22    23    2
    24    23    10    1
    25    23    24    1
    26     7    25    1
    27    25    26    1
    28    26     5    1
    29    26    27    1
    30    27    28   ar
    31    28    29   ar
    32    29    30   ar
    33    30    31    1
    34    30    32   ar
    35    32    33   ar
    36    33    27   ar
    37     5    34    1
    38    26    35    1
    39     1    36    1
    40     1    37    1
    41     1    38    1
    42     6    39    1
    43     6    40    1
    44    14    41    1
    45    15    42    1
    46    17    43    1
    47    18    44    1
    48    18    45    1
    49    18    46    1
    50    19    47    1
    51    19    48    1
    52    19    49    1
    53    20    50    1
    54    21    51    1
    55    22    52    1
    56    25    53    1
    57    25    54    1
    58    28    55    1
    59    29    56    1
    60    32    57    1
    61    33    58    1
