@<TRIPOS>MOLECULE
*****
 58 61 0 0 0
SMALL
USER_CHARGES

@<TRIPOS>ATOM
      1 C1          6.9381    0.6917   -2.5178 C.3     1  LIG1        0.0000
      2 O2          5.7041    0.3621   -1.8973 O.3     1  LIG1        0.0000
      3 C3          5.6791    0.4816   -0.5930 C.2     1  LIG1        0.0000
      4 O4          6.6588    0.8488   -0.0052 O.2     1  LIG1        0.0000
      5 C5          4.4099    0.1552    0.1756 C.3     1  LIG1        0.0000
      6 C6          3.2617    1.0765   -0.1854 C.3     1  LIG1        0.0000
      7 N7          2.4015    1.0000    1.0000 N.am    1  LIG1        0.0000
      8 C8          1.0000    1.0000    1.0000 C.2     1  LIG1        0.0000
      9 O9          0.4000    1.0587   -0.0376 O.2     1  LIG1        0.0000
     10 C10         0.2758    0.9291    2.2523 C.2     1  LIG1        0.0000
     11 N11         0.3393   -0.0279    3.1354 N.2     1  LIG1        0.0000
     12 N12        -0.4512    0.2139    4.1643 N.pl3   1  LIG1        0.0000
     13 C13        -0.6171   -0.6114    5.2833 C.3     1  LIG1        0.0000
     14 C14         0.0903   -1.8063    5.3713 C.3     1  LIG1        0.0000
     15 C15        -0.0702   -2.6293    6.4808 C.3     1  LIG1        0.0000
     16 C16        -0.9432   -2.2410    7.4923 C.3     1  LIG1        0.0000
     17 C17        -1.1235   -3.1360    8.7077 C.3     1  LIG1        0.0000
     18 C18        -1.6431   -4.4939    8.2645 C.3     1  LIG1        0.0000
     19 C19         0.2125   -3.3098    9.4116 C.3     1  LIG1        0.0000
     20 C20        -1.6514   -1.0473    7.4035 C.3     1  LIG1        0.0000
     21 C21        -1.4905   -0.2239    6.2941 C.3     1  LIG1        0.0000
     22 C22        -1.0904    1.4051    3.9716 C.2     1  LIG1        0.0000
     23 C23        -0.6460    1.8741    2.7696 C.2     1  LIG1        0.0000
     24 O24        -1.0183    3.0291    2.1708 O.2     1  LIG1       -1.0000
     25 C25         3.2796    0.9336    2.1736 C.3     1  LIG1        0.0000
     26 C26         4.5830    0.3556    1.6666 C.3     1  LIG1        0.0000
     27 C27         4.9115   -0.9748    2.3244 C.3     1  LIG1        0.0000
     28 C28         4.0550   -2.0566    2.1521 C.3     1  LIG1        0.0000
     29 C29         4.3477   -3.2778    2.7503 C.3     1  LIG1        0.0000
     30 C30         5.5013   -3.3979    3.5184 C.3     1  LIG1        0.0000
     31 Cl31        5.8823   -4.9571    4.2873 Cl      1  LIG1        0.0000
     32 C32         6.3636   -2.3212    3.6972 C.3     1  LIG1        0.0000
     33 C33         6.0624   -1.1036    3.0941 C.3     1  LIG1        0.0000
     34 H           4.1458   -0.7923   -0.0046 H       1  LIG1        0.0000
     35 H           5.3252    1.0046    1.8337 H       1  LIG1        0.0000
     36 H           6.8569    0.5694   -3.5070 H       1  LIG1        0.0000
     37 H           7.1680    1.6441   -2.3174 H       1  LIG1        0.0000
     38 H           7.6583    0.0938   -2.1660 H       1  LIG1        0.0000
     39 H           3.5834    2.0110   -0.3378 H       1  LIG1        0.0000
     40 H           2.7818    0.7521   -1.0006 H       1  LIG1        0.0000
     41 H           0.7140   -2.0734    4.6367 H       1  LIG1        0.0000
     42 H           0.4355   -3.4891    6.5508 H       1  LIG1        0.0000
     43 H          -1.7792   -2.7171    9.3359 H       1  LIG1        0.0000
     44 H          -1.7617   -5.0827    9.0640 H       1  LIG1        0.0000
     45 H          -2.5220   -4.3796    7.8014 H       1  LIG1        0.0000
     46 H          -0.9874   -4.9129    7.6363 H       1  LIG1        0.0000
     47 H           0.0939   -3.8986   10.2111 H       1  LIG1        0.0000
     48 H           0.8682   -3.7288    8.7834 H       1  LIG1        0.0000
     49 H           0.5543   -2.4165    9.7032 H       1  LIG1        0.0000
     50 H          -2.2764   -0.7810    8.1373 H       1  LIG1        0.0000
     51 H          -1.9964    0.6358    6.2242 H       1  LIG1        0.0000
     52 H          -1.7481    1.8431    4.5845 H       1  LIG1        0.0000
     53 H           2.8829    0.3408    2.8745 H       1  LIG1        0.0000
     54 H           3.4260    1.8470    2.5534 H       1  LIG1        0.0000
     55 H           3.2286   -1.9566    1.5981 H       1  LIG1        0.0000
     56 H           3.7363   -4.0599    2.6296 H       1  LIG1        0.0000
     57 H           7.1895   -2.4208    4.2521 H       1  LIG1        0.0000
     58 H           6.6737   -0.3214    3.2143 H       1  LIG1        0.0000
@<TRIPOS>UNITY_ATOM_ATTR
24 1
charge -1
@<TRIPOS>BOND
     1     1     2    1
     2     2     3    1
     3     3     4    2
     4     3     5    1
     5     5     6    1
     6     6     7    1
     7     7     8   am
     8     8     9    2
     9     8    10    1
    10    10    11    2
    11    11    12    1
    12    12    13    1
    13    13    14   ar
    14    14    15   ar
    15    15    16   ar
    16    16    17    1
    17    17    18    1
    18    17    19    1
    19    16    20   ar
    20    20    21   ar
    21    21    13   ar
    22    12    22    1
    23    22    23    2
    24    23    10    1
    25    23    24    1
    26     7    25    1
    27    25    26    1
    28    26     5    1
    29    26    27    1
    30    27    28   ar
    31    28    29   ar
    32    29    30   ar
    33    30    31    1
    34    30    32   ar
    35    32    33   ar
    36    33    27   ar
    37     5    34    1
    38    26    35    1
    39     1    36    1
    40     1    37    1
    41     1    38    1
    42     6    39    1
    43     6    40    1
    44    14    41    1
    45    15    42    1
    46    17    43    1
    47    18    44    1
    48    18    45    1
    49    18    46    1
    50    19    47    1
    51    19    48    1
    52    19    49    1
    53    20    50    1
    54    21    51    1
    55    22    52    1
    56    25    53    1
    57    25    54    1
    58    28    55    1
    59    29    56    1
    60    32    57    1
    61    33    58    1
