@<TRIPOS>MOLECULE
*****
 58 61 0 0 0
SMALL
USER_CHARGES

@<TRIPOS>ATOM
      1 C1          6.9381    0.6917   -2.5178 C.3     1  LIG1        0.0000
      2 O2          5.7041    0.3621   -1.8973 O.3     1  LIG1        0.0000
      3 C3          5.6791    0.4816   -0.5930 C.2     1  LIG1        0.0000
      4 O4          6.6588    0.8488   -0.0052 O.2     1  LIG1        0.0000
      5 C5          4.4099    0.1552    0.1756 C.3     1  LIG1        0.0000
      6 C6          3.2617    1.0765   -0.1854 C.3     1  LIG1        0.0000
      7 N7          2.4015    1.0000    1.0000 N.am    1  LIG1        0.0000
      8 C8          1.0000    1.0000    1.0000 C.2     1  LIG1        0.0000
      9 O9          0.4000    1.0587   -0.0376 O.2     1  LIG1        0.0000
     10 C10         0.2758    0.9291    2.2523 C.2     1  LIG1        0.0000
     11 N11        -0.8978    0.3946    2.4439 N.2     1  LIG1        0.0000
     12 N12        -1.2749    0.5014    3.7043 N.pl3   1  LIG1        0.0000
     13 C13        -2.4791    0.0320    4.2429 C.3     1  LIG1        0.0000
     14 C14        -3.3985   -0.6129    3.4214 C.3     1  LIG1        0.0000
     15 C15        -4.5957   -1.0818    3.9514 C.3     1  LIG1        0.0000
     16 C16        -4.8565   -0.8959    5.3054 C.3     1  LIG1        0.0000
     17 C17        -6.1633   -1.4057    5.8912 C.3     1  LIG1        0.0000
     18 C18        -7.3306   -0.7320    5.1884 C.3     1  LIG1        0.0000
     19 C19        -6.2537   -2.9103    5.6950 C.3     1  LIG1        0.0000
     20 C20        -3.9382   -0.2499    6.1262 C.3     1  LIG1        0.0000
     21 C21        -2.7406    0.2185    5.5963 C.3     1  LIG1        0.0000
     22 C22        -0.3017    1.1458    4.4130 C.2     1  LIG1        0.0000
     23 C23         0.6871    1.4254    3.5152 C.2     1  LIG1        0.0000
     24 O24         1.8506    2.0657    3.7753 O.2     1  LIG1       -1.0000
     25 C25         3.2796    0.9336    2.1736 C.3     1  LIG1        0.0000
     26 C26         4.5830    0.3556    1.6666 C.3     1  LIG1        0.0000
     27 C27         4.9115   -0.9748    2.3244 C.3     1  LIG1        0.0000
     28 C28         4.0550   -2.0566    2.1521 C.3     1  LIG1        0.0000
     29 C29         4.3477   -3.2778    2.7503 C.3     1  LIG1        0.0000
     30 C30         5.5013   -3.3979    3.5184 C.3     1  LIG1        0.0000
     31 Cl31        5.8823   -4.9571    4.2873 Cl      1  LIG1        0.0000
     32 C32         6.3636   -2.3212    3.6972 C.3     1  LIG1        0.0000
     33 C33         6.0624   -1.1036    3.0941 C.3     1  LIG1        0.0000
     34 H           4.1458   -0.7923   -0.0046 H       1  LIG1        0.0000
     35 H           5.3252    1.0046    1.8337 H       1  LIG1        0.0000
     36 H           6.8569    0.5694   -3.5070 H       1  LIG1        0.0000
     37 H           7.1680    1.6441   -2.3174 H       1  LIG1        0.0000
     38 H           7.6583    0.0938   -2.1660 H       1  LIG1        0.0000
     39 H           3.5834    2.0110   -0.3378 H       1  LIG1        0.0000
     40 H           2.7818    0.7521   -1.0006 H       1  LIG1        0.0000
     41 H          -3.1984   -0.7393    2.4498 H       1  LIG1        0.0000
     42 H          -5.2606   -1.5467    3.3668 H       1  LIG1        0.0000
     43 H          -6.1956   -1.1945    6.8681 H       1  LIG1        0.0000
     44 H          -8.1903   -1.0674    5.5737 H       1  LIG1        0.0000
     45 H          -7.2711    0.2578    5.3175 H       1  LIG1        0.0000
     46 H          -7.2984   -0.9433    4.2115 H       1  LIG1        0.0000
     47 H          -7.1134   -3.2457    6.0803 H       1  LIG1        0.0000
     48 H          -6.2215   -3.1215    4.7181 H       1  LIG1        0.0000
     49 H          -5.4858   -3.3535    6.1574 H       1  LIG1        0.0000
     50 H          -4.1390   -0.1221    7.0975 H       1  LIG1        0.0000
     51 H          -2.0758    0.6836    6.1810 H       1  LIG1        0.0000
     52 H          -0.3116    1.3670    5.3882 H       1  LIG1        0.0000
     53 H           2.8829    0.3408    2.8745 H       1  LIG1        0.0000
     54 H           3.4260    1.8470    2.5534 H       1  LIG1        0.0000
     55 H           3.2286   -1.9566    1.5981 H       1  LIG1        0.0000
     56 H           3.7363   -4.0599    2.6296 H       1  LIG1        0.0000
     57 H           7.1895   -2.4208    4.2521 H       1  LIG1        0.0000
     58 H           6.6737   -0.3214    3.2143 H       1  LIG1        0.0000
@<TRIPOS>UNITY_ATOM_ATTR
24 1
charge -1
@<TRIPOS>BOND
     1     1     2    1
     2     2     3    1
     3     3     4    2
     4     3     5    1
     5     5     6    1
     6     6     7    1
     7     7     8   am
     8     8     9    2
     9     8    10    1
    10    10    11    2
    11    11    12    1
    12    12    13    1
    13    13    14   ar
    14    14    15   ar
    15    15    16   ar
    16    16    17    1
    17    17    18    1
    18    17    19    1
    19    16    20   ar
    20    20    21   ar
    21    21    13   ar
    22    12    22    1
    23    22    23    2
    24    23    10    1
    25    23    24    1
    26     7    25    1
    27    25    26    1
    28    26     5    1
    29    26    27    1
    30    27    28   ar
    31    28    29   ar
    32    29    30   ar
    33    30    31    1
    34    30    32   ar
    35    32    33   ar
    36    33    27   ar
    37     5    34    1
    38    26    35    1
    39     1    36    1
    40     1    37    1
    41     1    38    1
    42     6    39    1
    43     6    40    1
    44    14    41    1
    45    15    42    1
    46    17    43    1
    47    18    44    1
    48    18    45    1
    49    18    46    1
    50    19    47    1
    51    19    48    1
    52    19    49    1
    53    20    50    1
    54    21    51    1
    55    22    52    1
    56    25    53    1
    57    25    54    1
    58    28    55    1
    59    29    56    1
    60    32    57    1
    61    33    58    1
