@<TRIPOS>MOLECULE
*****
 58 61 0 0 0
SMALL
USER_CHARGES

@<TRIPOS>ATOM
      1 C1          6.8160    1.9763   -2.5047 C.3     1  LIG1        0.0000
      2 O2          5.8800    1.2155   -1.7553 O.3     1  LIG1        0.0000
      3 C3          5.6430    1.6493   -0.5422 C.2     1  LIG1        0.0000
      4 O4          6.2036    2.6291   -0.1351 O.2     1  LIG1        0.0000
      5 C5          4.6586    0.9123    0.3491 C.3     1  LIG1        0.0000
      6 C6          3.2541    1.0710   -0.1907 C.3     1  LIG1        0.0000
      7 N7          2.4030    1.0000    1.0000 N.am    1  LIG1        0.0000
      8 C8          1.0000    1.0000    1.0000 C.2     1  LIG1        0.0000
      9 O9          0.4000    1.0587   -0.0376 O.2     1  LIG1        0.0000
     10 C10         0.2758    0.9291    2.2523 C.2     1  LIG1        0.0000
     11 N11         0.3393    1.7805    3.2377 N.2     1  LIG1        0.0000
     12 N12        -0.4449    1.4197    4.2362 N.pl3   1  LIG1        0.0000
     13 C13        -0.6095    2.1125    5.4418 C.3     1  LIG1        0.0000
     14 C14         0.0922    3.2939    5.6610 C.3     1  LIG1        0.0000
     15 C15        -0.0682    3.9865    6.8563 C.3     1  LIG1        0.0000
     16 C16        -0.9344    3.4818    7.8213 C.3     1  LIG1        0.0000
     17 C17        -1.1142    4.2336    9.1301 C.3     1  LIG1        0.0000
     18 C18         0.2240    4.3357    9.8438 C.3     1  LIG1        0.0000
     19 C19        -1.6437    5.6294    8.8441 C.3     1  LIG1        0.0000
     20 C20        -1.6345    2.3001    7.6027 C.3     1  LIG1        0.0000
     21 C21        -1.4746    1.6077    6.4070 C.3     1  LIG1        0.0000
     22 C22        -1.0801    0.2551    3.9125 C.2     1  LIG1        0.0000
     23 C23        -0.6392   -0.0729    2.6634 C.2     1  LIG1        0.0000
     24 O24        -1.0015   -1.1600    1.9435 O.2     1  LIG1       -1.0000
     25 C25         3.2503    0.9326    2.1904 C.3     1  LIG1        0.0000
     26 C26         4.5277    1.5696    1.7009 C.3     1  LIG1        0.0000
     27 C27         5.7069    1.2132    2.5915 C.3     1  LIG1        0.0000
     28 C28         6.0064   -0.1229    2.8332 C.3     1  LIG1        0.0000
     29 C29         7.0837   -0.4583    3.6468 C.3     1  LIG1        0.0000
     30 C30         7.8496    0.5567    4.2110 C.3     1  LIG1        0.0000
     31 Cl31        9.2292    0.1355    5.2535 Cl      1  LIG1        0.0000
     32 C32         7.5572    1.8960    3.9758 C.3     1  LIG1        0.0000
     33 C33         6.4777    2.2215    3.1598 C.3     1  LIG1        0.0000
     34 H           4.9045   -0.0528    0.4386 H       1  LIG1        0.0000
     35 H           4.4273    2.5606    1.6131 H       1  LIG1        0.0000
     36 H           6.9283    1.5680   -3.4106 H       1  LIG1        0.0000
     37 H           6.4824    2.9141   -2.6008 H       1  LIG1        0.0000
     38 H           7.6963    1.9826   -2.0304 H       1  LIG1        0.0000
     39 H           3.1482    1.9526   -0.6507 H       1  LIG1        0.0000
     40 H           3.0338    0.3334   -0.8290 H       1  LIG1        0.0000
     41 H           0.7119    3.6450    4.9591 H       1  LIG1        0.0000
     42 H           0.4325    4.8364    7.0202 H       1  LIG1        0.0000
     43 H          -1.7645    3.7427    9.7099 H       1  LIG1        0.0000
     44 H           0.1057    4.8303   10.7048 H       1  LIG1        0.0000
     45 H           0.5723    3.4175   10.0320 H       1  LIG1        0.0000
     46 H           0.8743    4.8266    9.2640 H       1  LIG1        0.0000
     47 H          -1.7620    6.1240    9.7051 H       1  LIG1        0.0000
     48 H          -0.9933    6.1203    8.2643 H       1  LIG1        0.0000
     49 H          -2.5240    5.5622    8.3746 H       1  LIG1        0.0000
     50 H          -2.2530    1.9482    8.3053 H       1  LIG1        0.0000
     51 H          -1.9752    0.7577    6.2433 H       1  LIG1        0.0000
     52 H          -1.7332   -0.2525    4.4745 H       1  LIG1        0.0000
     53 H           3.4019   -0.0137    2.4756 H       1  LIG1        0.0000
     54 H           2.8535    1.4498    2.9487 H       1  LIG1        0.0000
     55 H           5.4472   -0.8429    2.4220 H       1  LIG1        0.0000
     56 H           7.3049   -1.4173    3.8239 H       1  LIG1        0.0000
     57 H           8.1156    2.6161    4.3878 H       1  LIG1        0.0000
     58 H           6.2564    3.1804    2.9822 H       1  LIG1        0.0000
@<TRIPOS>UNITY_ATOM_ATTR
24 1
charge -1
@<TRIPOS>BOND
     1     1     2    1
     2     2     3    1
     3     3     4    2
     4     3     5    1
     5     5     6    1
     6     6     7    1
     7     7     8   am
     8     8     9    2
     9     8    10    1
    10    10    11    2
    11    11    12    1
    12    12    13    1
    13    13    14   ar
    14    14    15   ar
    15    15    16   ar
    16    16    17    1
    17    17    18    1
    18    17    19    1
    19    16    20   ar
    20    20    21   ar
    21    21    13   ar
    22    12    22    1
    23    22    23    2
    24    23    10    1
    25    23    24    1
    26     7    25    1
    27    25    26    1
    28    26     5    1
    29    26    27    1
    30    27    28   ar
    31    28    29   ar
    32    29    30   ar
    33    30    31    1
    34    30    32   ar
    35    32    33   ar
    36    33    27   ar
    37     5    34    1
    38    26    35    1
    39     1    36    1
    40     1    37    1
    41     1    38    1
    42     6    39    1
    43     6    40    1
    44    14    41    1
    45    15    42    1
    46    17    43    1
    47    18    44    1
    48    18    45    1
    49    18    46    1
    50    19    47    1
    51    19    48    1
    52    19    49    1
    53    20    50    1
    54    21    51    1
    55    22    52    1
    56    25    53    1
    57    25    54    1
    58    28    55    1
    59    29    56    1
    60    32    57    1
    61    33    58    1
