@<TRIPOS>MOLECULE

  41   43
SMALL
USER_CHARGES
@<TRIPOS>ATOM
   1 C1          -4.1972     1.2310     2.8576 C.3          1    LIG   0.0000
   2 C2          -2.8671     1.4022     2.1464 C.2          1    LIG   0.0000
   3 S3          -1.4433     0.5208     2.4565 S.3          1    LIG   0.0000
   4 C4          -0.4618     1.2924     1.2924 C.2          1    LIG   0.0000
   5 C5           1.0000     1.0000     1.0000 C.3          1    LIG   0.0000
   6 N6           1.8487     1.8487     1.8487 N.4          1    LIG   1.0000
   7 C7           1.5660     3.2624     1.5660 C.3          1    LIG   0.0000
   8 C8           1.8256     3.6664     0.1234 C.3          1    LIG   0.0000
   9 C9           1.4795     5.1437     0.0116 C.3          1    LIG   0.0000
  10 C10          0.1066     5.4616     0.5742 C.3          1    LIG   0.0000
  11 C11          0.3800     5.7183     2.0391 C.3          1    LIG   0.0000
  12 C12          1.8946     5.6295     2.1467 C.3          1    LIG   0.0000
  13 C13          2.2626     4.2049     2.5401 C.3          1    LIG   0.0000
  14 N14          2.3531     6.0081     0.8091 N.4          1    LIG   1.0000
  15 C15          2.1695     7.4405     0.5198 C.3          1    LIG   0.0000
  16 C16         -1.2447     2.2167     0.6760 C.2          1    LIG   0.0000
  17 C17         -2.5846     2.2824     1.1432 C.2          1    LIG   0.0000
  18 Br18        -3.9714     3.4952     0.4745 Br           1    LIG   0.0000
  19 H            1.6563     1.6563     2.8110 H            1    LIG   0.0000
  20 H            2.8110     1.6563     1.6563 H            1    LIG   0.0000
  21 H            0.5848     3.3844     1.7158 H            1    LIG   0.0000
  22 H            1.5195     5.4236    -0.9476 H            1    LIG   0.0000
  23 H            2.2342     6.2780     2.8279 H            1    LIG   0.0000
  24 H            3.3102     5.7474     0.6825 H            1    LIG   0.0000
  25 H           -4.8626     1.8747     2.4794 H            1    LIG   0.0000
  26 H           -4.5269     0.2959     2.7275 H            1    LIG   0.0000
  27 H           -4.0784     1.4098     3.8343 H            1    LIG   0.0000
  28 H            1.1925     0.0377     1.1925 H            1    LIG   0.0000
  29 H            1.1925     1.1925     0.0377 H            1    LIG   0.0000
  30 H            2.7875     3.5198    -0.1073 H            1    LIG   0.0000
  31 H            1.2493     3.1302    -0.4933 H            1    LIG   0.0000
  32 H           -0.5163     4.6882     0.4565 H            1    LIG   0.0000
  33 H           -0.2814     6.2719     0.1350 H            1    LIG   0.0000
  34 H            0.0563     6.6254     2.3082 H            1    LIG   0.0000
  35 H           -0.0590     5.0248     2.6103 H            1    LIG   0.0000
  36 H            1.9551     4.0188     3.4733 H            1    LIG   0.0000
  37 H            3.2533     4.0811     2.4847 H            1    LIG   0.0000
  38 H            2.7894     7.9781     1.0914 H            1    LIG   0.0000
  39 H            2.3701     7.6142    -0.4443 H            1    LIG   0.0000
  40 H            1.2244     7.7017     0.7160 H            1    LIG   0.0000
  41 H           -0.9021     2.8081    -0.0540 H            1    LIG   0.0000
@<TRIPOS>BOND
   1        1        2 1
   2        2        3 1
   3        3        4 1
   4        4        5 1
   5        5        6 1
   6        6        7 1
   7        7        8 1
   8        8        9 1
   9        9       10 1
  10       10       11 1
  11       11       12 1
  12       12       13 1
  13       13        7 1
  14       12       14 1
  15       14        9 1
  16       14       15 1
  17        4       16 2
  18       16       17 1
  19       17        2 2
  20       17       18 1
  21        6       19 1
  22        6       20 1
  23        7       21 1
  24        9       22 1
  25       12       23 1
  26       14       24 1
  27        1       25 1
  28        1       26 1
  29        1       27 1
  30        5       28 1
  31        5       29 1
  32        8       30 1
  33        8       31 1
  34       10       32 1
  35       10       33 1
  36       11       34 1
  37       11       35 1
  38       13       36 1
  39       13       37 1
  40       15       38 1
  41       15       39 1
  42       15       40 1
  43       16       41 1

@<TRIPOS>MOLECULE

  41   43
SMALL
USER_CHARGES
@<TRIPOS>ATOM
   1 C1          -3.8860     2.8270     2.8177 C.3          1    LIG   0.0000
   2 C2          -2.7242     2.1324     2.1307 C.2          1    LIG   0.0000
   3 S3          -1.0708     2.4200     2.4200 S.3          1    LIG   0.0000
   4 C4          -0.4618     1.2924     1.2924 C.2          1    LIG   0.0000
   5 C5           1.0000     1.0000     1.0000 C.3          1    LIG   0.0000
   6 N6           1.8487     1.8487     1.8487 N.4          1    LIG   1.0000
   7 C7           1.5660     3.2624     1.5660 C.3          1    LIG   0.0000
   8 C8           1.8256     3.6664     0.1234 C.3          1    LIG   0.0000
   9 C9           1.4795     5.1437     0.0116 C.3          1    LIG   0.0000
  10 C10          0.1066     5.4616     0.5742 C.3          1    LIG   0.0000
  11 C11          0.3800     5.7183     2.0391 C.3          1    LIG   0.0000
  12 C12          1.8946     5.6295     2.1467 C.3          1    LIG   0.0000
  13 C13          2.2626     4.2049     2.5401 C.3          1    LIG   0.0000
  14 N14          2.3531     6.0081     0.8091 N.4          1    LIG   1.0000
  15 C15          2.1695     7.4405     0.5198 C.3          1    LIG   0.0000
  16 C16         -1.5402     0.7050     0.7100 C.2          1    LIG   0.0000
  17 C17         -2.8023     1.1646     1.1725 C.2          1    LIG   0.0000
  18 Br18        -4.5493     0.5311     0.5494 Br           1    LIG   0.0000
  19 H            1.6563     1.6563     2.8110 H            1    LIG   0.0000
  20 H            2.8110     1.6563     1.6563 H            1    LIG   0.0000
  21 H            0.5848     3.3844     1.7158 H            1    LIG   0.0000
  22 H            1.5195     5.4236    -0.9476 H            1    LIG   0.0000
  23 H            2.2342     6.2780     2.8279 H            1    LIG   0.0000
  24 H            3.3102     5.7474     0.6825 H            1    LIG   0.0000
  25 H           -4.7479     2.4682     2.4594 H            1    LIG   0.0000
  26 H           -3.8390     2.6600     3.8025 H            1    LIG   0.0000
  27 H           -3.8364     3.8105     2.6436 H            1    LIG   0.0000
  28 H            1.1925     0.0377     1.1925 H            1    LIG   0.0000
  29 H            1.1925     1.1925     0.0377 H            1    LIG   0.0000
  30 H            2.7875     3.5198    -0.1073 H            1    LIG   0.0000
  31 H            1.2493     3.1302    -0.4933 H            1    LIG   0.0000
  32 H           -0.5163     4.6882     0.4565 H            1    LIG   0.0000
  33 H           -0.2814     6.2719     0.1350 H            1    LIG   0.0000
  34 H            0.0563     6.6254     2.3082 H            1    LIG   0.0000
  35 H           -0.0590     5.0248     2.6103 H            1    LIG   0.0000
  36 H            1.9551     4.0188     3.4733 H            1    LIG   0.0000
  37 H            3.2533     4.0811     2.4847 H            1    LIG   0.0000
  38 H            2.7894     7.9781     1.0914 H            1    LIG   0.0000
  39 H            2.3701     7.6142    -0.4443 H            1    LIG   0.0000
  40 H            1.2244     7.7017     0.7160 H            1    LIG   0.0000
  41 H           -1.4516    -0.0001     0.0064 H            1    LIG   0.0000
@<TRIPOS>BOND
   1        1        2 1
   2        2        3 1
   3        3        4 1
   4        4        5 1
   5        5        6 1
   6        6        7 1
   7        7        8 1
   8        8        9 1
   9        9       10 1
  10       10       11 1
  11       11       12 1
  12       12       13 1
  13       13        7 1
  14       12       14 1
  15       14        9 1
  16       14       15 1
  17        4       16 2
  18       16       17 1
  19       17        2 2
  20       17       18 1
  21        6       19 1
  22        6       20 1
  23        7       21 1
  24        9       22 1
  25       12       23 1
  26       14       24 1
  27        1       25 1
  28        1       26 1
  29        1       27 1
  30        5       28 1
  31        5       29 1
  32        8       30 1
  33        8       31 1
  34       10       32 1
  35       10       33 1
  36       11       34 1
  37       11       35 1
  38       13       36 1
  39       13       37 1
  40       15       38 1
  41       15       39 1
  42       15       40 1
  43       16       41 1

@<TRIPOS>MOLECULE

  41   43
SMALL
USER_CHARGES
@<TRIPOS>ATOM
   1 C1          -4.5120     1.2526     1.2619 C.3          1    LIG   0.0000
   2 C2          -3.0107     1.4146     1.4162 C.2          1    LIG   0.0000
   3 S3          -1.8158     0.5573     0.5573 S.3          1    LIG   0.0000
   4 C4          -0.4618     1.2924     1.2924 C.2          1    LIG   0.0000
   5 C5           1.0000     1.0000     1.0000 C.3          1    LIG   0.0000
   6 N6           1.8487     1.8487     1.8487 N.4          1    LIG   1.0000
   7 C7           1.5660     3.2624     1.5660 C.3          1    LIG   0.0000
   8 C8           1.8256     3.6664     0.1234 C.3          1    LIG   0.0000
   9 C9           1.4795     5.1437     0.0116 C.3          1    LIG   0.0000
  10 C10          0.1066     5.4616     0.5742 C.3          1    LIG   0.0000
  11 C11          0.3800     5.7183     2.0391 C.3          1    LIG   0.0000
  12 C12          1.8946     5.6295     2.1467 C.3          1    LIG   0.0000
  13 C13          2.2626     4.2049     2.5401 C.3          1    LIG   0.0000
  14 N14          2.3531     6.0081     0.8091 N.4          1    LIG   1.0000
  15 C15          2.1695     7.4405     0.5198 C.3          1    LIG   0.0000
  16 C16         -0.9472     2.1925     2.1875 C.2          1    LIG   0.0000
  17 C17         -2.3639     2.2686     2.2608 C.2          1    LIG   0.0000
  18 Br18        -3.3866     3.4560     3.4378 Br           1    LIG   0.0000
  19 H            1.6563     1.6563     2.8110 H            1    LIG   0.0000
  20 H            2.8110     1.6563     1.6563 H            1    LIG   0.0000
  21 H            0.5848     3.3844     1.7158 H            1    LIG   0.0000
  22 H            1.5195     5.4236    -0.9476 H            1    LIG   0.0000
  23 H            2.2342     6.2780     2.8279 H            1    LIG   0.0000
  24 H            3.3102     5.7474     0.6825 H            1    LIG   0.0000
  25 H           -4.9807     1.8775     1.8863 H            1    LIG   0.0000
  26 H           -4.7749     1.4628     0.3203 H            1    LIG   0.0000
  27 H           -4.7696     0.3107     1.4776 H            1    LIG   0.0000
  28 H            1.1925     0.0377     1.1925 H            1    LIG   0.0000
  29 H            1.1925     1.1925     0.0377 H            1    LIG   0.0000
  30 H            2.7875     3.5198    -0.1073 H            1    LIG   0.0000
  31 H            1.2493     3.1302    -0.4933 H            1    LIG   0.0000
  32 H           -0.5163     4.6882     0.4565 H            1    LIG   0.0000
  33 H           -0.2814     6.2719     0.1350 H            1    LIG   0.0000
  34 H            0.0563     6.6254     2.3082 H            1    LIG   0.0000
  35 H           -0.0590     5.0248     2.6103 H            1    LIG   0.0000
  36 H            1.9551     4.0188     3.4733 H            1    LIG   0.0000
  37 H            3.2533     4.0811     2.4847 H            1    LIG   0.0000
  38 H            2.7894     7.9781     1.0914 H            1    LIG   0.0000
  39 H            2.3701     7.6142    -0.4443 H            1    LIG   0.0000
  40 H            1.2244     7.7017     0.7160 H            1    LIG   0.0000
  41 H           -0.3500     2.7604     2.7539 H            1    LIG   0.0000
@<TRIPOS>BOND
   1        1        2 1
   2        2        3 1
   3        3        4 1
   4        4        5 1
   5        5        6 1
   6        6        7 1
   7        7        8 1
   8        8        9 1
   9        9       10 1
  10       10       11 1
  11       11       12 1
  12       12       13 1
  13       13        7 1
  14       12       14 1
  15       14        9 1
  16       14       15 1
  17        4       16 2
  18       16       17 1
  19       17        2 2
  20       17       18 1
  21        6       19 1
  22        6       20 1
  23        7       21 1
  24        9       22 1
  25       12       23 1
  26       14       24 1
  27        1       25 1
  28        1       26 1
  29        1       27 1
  30        5       28 1
  31        5       29 1
  32        8       30 1
  33        8       31 1
  34       10       32 1
  35       10       33 1
  36       11       34 1
  37       11       35 1
  38       13       36 1
  39       13       37 1
  40       15       38 1
  41       15       39 1
  42       15       40 1
  43       16       41 1

@<TRIPOS>MOLECULE

  41   43
SMALL
USER_CHARGES
@<TRIPOS>ATOM
   1 C1          -4.2008     2.8486     1.2220 C.3          1    LIG   0.0000
   2 C2          -2.8678     2.1448     1.4005 C.2          1    LIG   0.0000
   3 S3          -1.4433     2.4565     0.5208 S.3          1    LIG   0.0000
   4 C4          -0.4618     1.2924     1.2924 C.2          1    LIG   0.0000
   5 C5           1.0000     1.0000     1.0000 C.3          1    LIG   0.0000
   6 N6           1.8487     1.8487     1.8487 N.4          1    LIG   1.0000
   7 C7           1.5660     3.2624     1.5660 C.3          1    LIG   0.0000
   8 C8           1.8256     3.6664     0.1234 C.3          1    LIG   0.0000
   9 C9           1.4795     5.1437     0.0116 C.3          1    LIG   0.0000
  10 C10          0.1066     5.4616     0.5742 C.3          1    LIG   0.0000
  11 C11          0.3800     5.7183     2.0391 C.3          1    LIG   0.0000
  12 C12          1.8946     5.6295     2.1467 C.3          1    LIG   0.0000
  13 C13          2.2626     4.2049     2.5401 C.3          1    LIG   0.0000
  14 N14          2.3531     6.0081     0.8091 N.4          1    LIG   1.0000
  15 C15          2.1695     7.4405     0.5198 C.3          1    LIG   0.0000
  16 C16         -1.2428     0.6808     2.2215 C.2          1    LIG   0.0000
  17 C17         -2.5816     1.1508     2.2900 C.2          1    LIG   0.0000
  18 Br18        -3.9644     0.4920     3.5127 Br           1    LIG   0.0000
  19 H            1.6563     1.6563     2.8110 H            1    LIG   0.0000
  20 H            2.8110     1.6563     1.6563 H            1    LIG   0.0000
  21 H            0.5848     3.3844     1.7158 H            1    LIG   0.0000
  22 H            1.5195     5.4236    -0.9476 H            1    LIG   0.0000
  23 H            2.2342     6.2780     2.8279 H            1    LIG   0.0000
  24 H            3.3102     5.7474     0.6825 H            1    LIG   0.0000
  25 H           -4.8660     2.4710     1.8663 H            1    LIG   0.0000
  26 H           -4.0871     3.8269     1.3953 H            1    LIG   0.0000
  27 H           -4.5276     2.7114     0.2869 H            1    LIG   0.0000
  28 H            1.1925     0.0377     1.1925 H            1    LIG   0.0000
  29 H            1.1925     1.1925     0.0377 H            1    LIG   0.0000
  30 H            2.7875     3.5198    -0.1073 H            1    LIG   0.0000
  31 H            1.2493     3.1302    -0.4933 H            1    LIG   0.0000
  32 H           -0.5163     4.6882     0.4565 H            1    LIG   0.0000
  33 H           -0.2814     6.2719     0.1350 H            1    LIG   0.0000
  34 H            0.0563     6.6254     2.3082 H            1    LIG   0.0000
  35 H           -0.0590     5.0248     2.6103 H            1    LIG   0.0000
  36 H            1.9551     4.0188     3.4733 H            1    LIG   0.0000
  37 H            3.2533     4.0811     2.4847 H            1    LIG   0.0000
  38 H            2.7894     7.9781     1.0914 H            1    LIG   0.0000
  39 H            2.3701     7.6142    -0.4443 H            1    LIG   0.0000
  40 H            1.2244     7.7017     0.7160 H            1    LIG   0.0000
  41 H           -0.8996    -0.0477     2.8143 H            1    LIG   0.0000
@<TRIPOS>BOND
   1        1        2 1
   2        2        3 1
   3        3        4 1
   4        4        5 1
   5        5        6 1
   6        6        7 1
   7        7        8 1
   8        8        9 1
   9        9       10 1
  10       10       11 1
  11       11       12 1
  12       12       13 1
  13       13        7 1
  14       12       14 1
  15       14        9 1
  16       14       15 1
  17        4       16 2
  18       16       17 1
  19       17        2 2
  20       17       18 1
  21        6       19 1
  22        6       20 1
  23        7       21 1
  24        9       22 1
  25       12       23 1
  26       14       24 1
  27        1       25 1
  28        1       26 1
  29        1       27 1
  30        5       28 1
  31        5       29 1
  32        8       30 1
  33        8       31 1
  34       10       32 1
  35       10       33 1
  36       11       34 1
  37       11       35 1
  38       13       36 1
  39       13       37 1
  40       15       38 1
  41       15       39 1
  42       15       40 1
  43       16       41 1

@<TRIPOS>MOLECULE

  41   43
SMALL
USER_CHARGES
@<TRIPOS>ATOM
   1 C1          -4.1972     1.2310     2.8576 C.3          1    LIG   0.0000
   2 C2          -2.8671     1.4022     2.1464 C.2          1    LIG   0.0000
   3 S3          -1.4433     0.5208     2.4565 S.3          1    LIG   0.0000
   4 C4          -0.4618     1.2924     1.2924 C.2          1    LIG   0.0000
   5 C5           1.0000     1.0000     1.0000 C.3          1    LIG   0.0000
   6 N6           1.8487     1.8487     1.8487 N.4          1    LIG   1.0000
   7 C7           1.5660     3.2624     1.5660 C.3          1    LIG   0.0000
   8 C8           2.7712     4.0447     1.0691 C.3          1    LIG   0.0000
   9 C9           2.2999     5.4706     0.8257 C.3          1    LIG   0.0000
  10 C10          1.0472     5.5291    -0.0286 C.3          1    LIG   0.0000
  11 C11         -0.0712     5.4169     0.9829 C.3          1    LIG   0.0000
  12 C12          0.6495     5.4156     2.3223 C.3          1    LIG   0.0000
  13 C13          0.8890     3.9691     2.7343 C.3          1    LIG   0.0000
  14 N14          1.8790     6.1609     2.0474 N.4          1    LIG   1.0000
  15 C15          1.6481     7.6017     1.8471 C.3          1    LIG   0.0000
  16 C16         -1.2447     2.2167     0.6760 C.2          1    LIG   0.0000
  17 C17         -2.5846     2.2824     1.1432 C.2          1    LIG   0.0000
  18 Br18        -3.9714     3.4952     0.4745 Br           1    LIG   0.0000
  19 H            1.6563     1.6563     2.8110 H            1    LIG   0.0000
  20 H            2.8110     1.6563     1.6563 H            1    LIG   0.0000
  21 H            0.9035     3.2683     0.8169 H            1    LIG   0.0000
  22 H            3.0297     5.9918     0.3831 H            1    LIG   0.0000
  23 H            0.1023     5.8886     3.0129 H            1    LIG   0.0000
  24 H            2.5460     6.0136     2.7777 H            1    LIG   0.0000
  25 H           -4.8626     1.8747     2.4794 H            1    LIG   0.0000
  26 H           -4.5269     0.2959     2.7275 H            1    LIG   0.0000
  27 H           -4.0784     1.4098     3.8343 H            1    LIG   0.0000
  28 H            1.1925     0.0377     1.1925 H            1    LIG   0.0000
  29 H            1.1925     1.1925     0.0377 H            1    LIG   0.0000
  30 H            3.4960     4.0346     1.7579 H            1    LIG   0.0000
  31 H            3.1140     3.6455     0.2187 H            1    LIG   0.0000
  32 H            1.0206     4.7688    -0.6775 H            1    LIG   0.0000
  33 H            0.9938     6.3946    -0.5267 H            1    LIG   0.0000
  34 H           -0.6935     6.1966     0.9139 H            1    LIG   0.0000
  35 H           -0.5844     4.5684     0.8538 H            1    LIG   0.0000
  36 H            0.0175     3.5252     2.9425 H            1    LIG   0.0000
  37 H            1.4800     3.9376     3.5404 H            1    LIG   0.0000
  38 H            1.3644     8.0171     2.7114 H            1    LIG   0.0000
  39 H            2.4927     8.0338     1.5310 H            1    LIG   0.0000
  40 H            0.9305     7.7323     1.1631 H            1    LIG   0.0000
  41 H           -0.9021     2.8081    -0.0540 H            1    LIG   0.0000
@<TRIPOS>BOND
   1        1        2 1
   2        2        3 1
   3        3        4 1
   4        4        5 1
   5        5        6 1
   6        6        7 1
   7        7        8 1
   8        8        9 1
   9        9       10 1
  10       10       11 1
  11       11       12 1
  12       12       13 1
  13       13        7 1
  14       12       14 1
  15       14        9 1
  16       14       15 1
  17        4       16 2
  18       16       17 1
  19       17        2 2
  20       17       18 1
  21        6       19 1
  22        6       20 1
  23        7       21 1
  24        9       22 1
  25       12       23 1
  26       14       24 1
  27        1       25 1
  28        1       26 1
  29        1       27 1
  30        5       28 1
  31        5       29 1
  32        8       30 1
  33        8       31 1
  34       10       32 1
  35       10       33 1
  36       11       34 1
  37       11       35 1
  38       13       36 1
  39       13       37 1
  40       15       38 1
  41       15       39 1
  42       15       40 1
  43       16       41 1

@<TRIPOS>MOLECULE

  41   43
SMALL
USER_CHARGES
@<TRIPOS>ATOM
   1 C1          -4.2008     2.8486     1.2220 C.3          1    LIG   0.0000
   2 C2          -2.8678     2.1448     1.4005 C.2          1    LIG   0.0000
   3 S3          -1.4433     2.4565     0.5208 S.3          1    LIG   0.0000
   4 C4          -0.4618     1.2924     1.2924 C.2          1    LIG   0.0000
   5 C5           1.0000     1.0000     1.0000 C.3          1    LIG   0.0000
   6 N6           1.8487     1.8487     1.8487 N.4          1    LIG   1.0000
   7 C7           1.5660     3.2624     1.5660 C.3          1    LIG   0.0000
   8 C8           2.7712     4.0447     1.0691 C.3          1    LIG   0.0000
   9 C9           2.2999     5.4706     0.8257 C.3          1    LIG   0.0000
  10 C10          1.0472     5.5291    -0.0286 C.3          1    LIG   0.0000
  11 C11         -0.0712     5.4169     0.9829 C.3          1    LIG   0.0000
  12 C12          0.6495     5.4156     2.3223 C.3          1    LIG   0.0000
  13 C13          0.8890     3.9691     2.7343 C.3          1    LIG   0.0000
  14 N14          1.8790     6.1609     2.0474 N.4          1    LIG   1.0000
  15 C15          1.6481     7.6017     1.8471 C.3          1    LIG   0.0000
  16 C16         -1.2428     0.6808     2.2215 C.2          1    LIG   0.0000
  17 C17         -2.5816     1.1508     2.2900 C.2          1    LIG   0.0000
  18 Br18        -3.9644     0.4920     3.5127 Br           1    LIG   0.0000
  19 H            1.6563     1.6563     2.8110 H            1    LIG   0.0000
  20 H            2.8110     1.6563     1.6563 H            1    LIG   0.0000
  21 H            0.9035     3.2683     0.8169 H            1    LIG   0.0000
  22 H            3.0297     5.9918     0.3831 H            1    LIG   0.0000
  23 H            0.1023     5.8886     3.0129 H            1    LIG   0.0000
  24 H            2.5460     6.0136     2.7777 H            1    LIG   0.0000
  25 H           -4.8660     2.4710     1.8663 H            1    LIG   0.0000
  26 H           -4.0871     3.8269     1.3953 H            1    LIG   0.0000
  27 H           -4.5276     2.7114     0.2869 H            1    LIG   0.0000
  28 H            1.1925     0.0377     1.1925 H            1    LIG   0.0000
  29 H            1.1925     1.1925     0.0377 H            1    LIG   0.0000
  30 H            3.4960     4.0346     1.7579 H            1    LIG   0.0000
  31 H            3.1140     3.6455     0.2187 H            1    LIG   0.0000
  32 H            1.0206     4.7688    -0.6775 H            1    LIG   0.0000
  33 H            0.9938     6.3946    -0.5267 H            1    LIG   0.0000
  34 H           -0.6935     6.1966     0.9139 H            1    LIG   0.0000
  35 H           -0.5844     4.5684     0.8538 H            1    LIG   0.0000
  36 H            0.0175     3.5252     2.9425 H            1    LIG   0.0000
  37 H            1.4800     3.9376     3.5404 H            1    LIG   0.0000
  38 H            1.3644     8.0171     2.7114 H            1    LIG   0.0000
  39 H            2.4927     8.0338     1.5310 H            1    LIG   0.0000
  40 H            0.9305     7.7323     1.1631 H            1    LIG   0.0000
  41 H           -0.8996    -0.0477     2.8143 H            1    LIG   0.0000
@<TRIPOS>BOND
   1        1        2 1
   2        2        3 1
   3        3        4 1
   4        4        5 1
   5        5        6 1
   6        6        7 1
   7        7        8 1
   8        8        9 1
   9        9       10 1
  10       10       11 1
  11       11       12 1
  12       12       13 1
  13       13        7 1
  14       12       14 1
  15       14        9 1
  16       14       15 1
  17        4       16 2
  18       16       17 1
  19       17        2 2
  20       17       18 1
  21        6       19 1
  22        6       20 1
  23        7       21 1
  24        9       22 1
  25       12       23 1
  26       14       24 1
  27        1       25 1
  28        1       26 1
  29        1       27 1
  30        5       28 1
  31        5       29 1
  32        8       30 1
  33        8       31 1
  34       10       32 1
  35       10       33 1
  36       11       34 1
  37       11       35 1
  38       13       36 1
  39       13       37 1
  40       15       38 1
  41       15       39 1
  42       15       40 1
  43       16       41 1

@<TRIPOS>MOLECULE

  41   43
SMALL
USER_CHARGES
@<TRIPOS>ATOM
   1 C1          -4.1972     1.2310     2.8576 C.3          1    LIG   0.0000
   2 C2          -2.8671     1.4022     2.1464 C.2          1    LIG   0.0000
   3 S3          -1.4433     0.5208     2.4565 S.3          1    LIG   0.0000
   4 C4          -0.4618     1.2924     1.2924 C.2          1    LIG   0.0000
   5 C5           1.0000     1.0000     1.0000 C.3          1    LIG   0.0000
   6 N6           1.8487     1.8487     1.8487 N.4          1    LIG   1.0000
   7 C7           1.5662     3.2614     1.5662 C.3          1    LIG   0.0000
   8 C8           2.8436     3.9324     1.0791 C.3          1    LIG   0.0000
   9 C9           3.7238     4.3780     2.2352 C.3          1    LIG   0.0000
  10 C10          3.4533     5.8527     2.4629 C.3          1    LIG   0.0000
  11 C11          2.2991     5.8589     3.4479 C.3          1    LIG   0.0000
  12 C12          2.0495     4.3987     3.7768 C.3          1    LIG   0.0000
  13 C13          0.9814     3.9723     2.7821 C.3          1    LIG   0.0000
  14 N14          3.3518     3.7806     3.5219 N.4          1    LIG   1.0000
  15 C15          4.3316     4.0676     4.5865 C.3          1    LIG   0.0000
  16 C16         -1.2447     2.2167     0.6760 C.2          1    LIG   0.0000
  17 C17         -2.5846     2.2824     1.1432 C.2          1    LIG   0.0000
  18 Br18        -3.9714     3.4952     0.4745 Br           1    LIG   0.0000
  19 H            1.6563     1.6563     2.8110 H            1    LIG   0.0000
  20 H            2.8110     1.6563     1.6563 H            1    LIG   0.0000
  21 H            0.8925     3.3022     0.8282 H            1    LIG   0.0000
  22 H            4.6898     4.2183     2.0321 H            1    LIG   0.0000
  23 H            1.7528     4.2725     4.7234 H            1    LIG   0.0000
  24 H            3.2435     2.7919     3.4181 H            1    LIG   0.0000
  25 H           -4.8626     1.8747     2.4794 H            1    LIG   0.0000
  26 H           -4.5269     0.2959     2.7275 H            1    LIG   0.0000
  27 H           -4.0784     1.4098     3.8343 H            1    LIG   0.0000
  28 H            1.1925     0.0377     1.1925 H            1    LIG   0.0000
  29 H            1.1925     1.1925     0.0377 H            1    LIG   0.0000
  30 H            3.3546     3.2842     0.5145 H            1    LIG   0.0000
  31 H            2.6001     4.7324     0.5307 H            1    LIG   0.0000
  32 H            3.1955     6.3040     1.6087 H            1    LIG   0.0000
  33 H            4.2555     6.3066     2.8508 H            1    LIG   0.0000
  34 H            2.5451     6.3673     4.2731 H            1    LIG   0.0000
  35 H            1.4867     6.2690     3.0335 H            1    LIG   0.0000
  36 H            0.4889     4.7855     2.4721 H            1    LIG   0.0000
  37 H            0.3451     3.3521     3.2410 H            1    LIG   0.0000
  38 H            4.0322     3.6396     5.4393 H            1    LIG   0.0000
  39 H            5.2246     3.7012     4.3253 H            1    LIG   0.0000
  40 H            4.4022     5.0566     4.7168 H            1    LIG   0.0000
  41 H           -0.9021     2.8081    -0.0540 H            1    LIG   0.0000
@<TRIPOS>BOND
   1        1        2 1
   2        2        3 1
   3        3        4 1
   4        4        5 1
   5        5        6 1
   6        6        7 1
   7        7        8 1
   8        8        9 1
   9        9       10 1
  10       10       11 1
  11       11       12 1
  12       12       13 1
  13       13        7 1
  14       12       14 1
  15       14        9 1
  16       14       15 1
  17        4       16 2
  18       16       17 1
  19       17        2 2
  20       17       18 1
  21        6       19 1
  22        6       20 1
  23        7       21 1
  24        9       22 1
  25       12       23 1
  26       14       24 1
  27        1       25 1
  28        1       26 1
  29        1       27 1
  30        5       28 1
  31        5       29 1
  32        8       30 1
  33        8       31 1
  34       10       32 1
  35       10       33 1
  36       11       34 1
  37       11       35 1
  38       13       36 1
  39       13       37 1
  40       15       38 1
  41       15       39 1
  42       15       40 1
  43       16       41 1

@<TRIPOS>MOLECULE

  41   43
SMALL
USER_CHARGES
@<TRIPOS>ATOM
   1 C1          -4.2008     2.8486     1.2220 C.3          1    LIG   0.0000
   2 C2          -2.8678     2.1448     1.4005 C.2          1    LIG   0.0000
   3 S3          -1.4433     2.4565     0.5208 S.3          1    LIG   0.0000
   4 C4          -0.4618     1.2924     1.2924 C.2          1    LIG   0.0000
   5 C5           1.0000     1.0000     1.0000 C.3          1    LIG   0.0000
   6 N6           1.8487     1.8487     1.8487 N.4          1    LIG   1.0000
   7 C7           1.5662     3.2614     1.5662 C.3          1    LIG   0.0000
   8 C8           2.8436     3.9324     1.0791 C.3          1    LIG   0.0000
   9 C9           3.7238     4.3780     2.2352 C.3          1    LIG   0.0000
  10 C10          3.4533     5.8527     2.4629 C.3          1    LIG   0.0000
  11 C11          2.2991     5.8589     3.4479 C.3          1    LIG   0.0000
  12 C12          2.0495     4.3987     3.7768 C.3          1    LIG   0.0000
  13 C13          0.9814     3.9723     2.7821 C.3          1    LIG   0.0000
  14 N14          3.3518     3.7806     3.5219 N.4          1    LIG   1.0000
  15 C15          4.3316     4.0676     4.5865 C.3          1    LIG   0.0000
  16 C16         -1.2428     0.6808     2.2215 C.2          1    LIG   0.0000
  17 C17         -2.5816     1.1508     2.2900 C.2          1    LIG   0.0000
  18 Br18        -3.9644     0.4920     3.5127 Br           1    LIG   0.0000
  19 H            1.6563     1.6563     2.8110 H            1    LIG   0.0000
  20 H            2.8110     1.6563     1.6563 H            1    LIG   0.0000
  21 H            0.8925     3.3022     0.8282 H            1    LIG   0.0000
  22 H            4.6898     4.2183     2.0321 H            1    LIG   0.0000
  23 H            1.7528     4.2725     4.7234 H            1    LIG   0.0000
  24 H            3.2435     2.7919     3.4181 H            1    LIG   0.0000
  25 H           -4.8660     2.4710     1.8663 H            1    LIG   0.0000
  26 H           -4.0871     3.8269     1.3953 H            1    LIG   0.0000
  27 H           -4.5276     2.7114     0.2869 H            1    LIG   0.0000
  28 H            1.1925     0.0377     1.1925 H            1    LIG   0.0000
  29 H            1.1925     1.1925     0.0377 H            1    LIG   0.0000
  30 H            3.3546     3.2842     0.5145 H            1    LIG   0.0000
  31 H            2.6001     4.7324     0.5307 H            1    LIG   0.0000
  32 H            3.1955     6.3040     1.6087 H            1    LIG   0.0000
  33 H            4.2555     6.3066     2.8508 H            1    LIG   0.0000
  34 H            2.5451     6.3673     4.2731 H            1    LIG   0.0000
  35 H            1.4867     6.2690     3.0335 H            1    LIG   0.0000
  36 H            0.4889     4.7855     2.4721 H            1    LIG   0.0000
  37 H            0.3451     3.3521     3.2410 H            1    LIG   0.0000
  38 H            4.0322     3.6396     5.4393 H            1    LIG   0.0000
  39 H            5.2246     3.7012     4.3253 H            1    LIG   0.0000
  40 H            4.4022     5.0566     4.7168 H            1    LIG   0.0000
  41 H           -0.8996    -0.0477     2.8143 H            1    LIG   0.0000
@<TRIPOS>BOND
   1        1        2 1
   2        2        3 1
   3        3        4 1
   4        4        5 1
   5        5        6 1
   6        6        7 1
   7        7        8 1
   8        8        9 1
   9        9       10 1
  10       10       11 1
  11       11       12 1
  12       12       13 1
  13       13        7 1
  14       12       14 1
  15       14        9 1
  16       14       15 1
  17        4       16 2
  18       16       17 1
  19       17        2 2
  20       17       18 1
  21        6       19 1
  22        6       20 1
  23        7       21 1
  24        9       22 1
  25       12       23 1
  26       14       24 1
  27        1       25 1
  28        1       26 1
  29        1       27 1
  30        5       28 1
  31        5       29 1
  32        8       30 1
  33        8       31 1
  34       10       32 1
  35       10       33 1
  36       11       34 1
  37       11       35 1
  38       13       36 1
  39       13       37 1
  40       15       38 1
  41       15       39 1
  42       15       40 1
  43       16       41 1

@<TRIPOS>MOLECULE

  41   43
SMALL
USER_CHARGES
@<TRIPOS>ATOM
   1 C1          -4.1972     1.2310     2.8576 C.3          1    LIG   0.0000
   2 C2          -2.8671     1.4022     2.1464 C.2          1    LIG   0.0000
   3 S3          -1.4433     0.5208     2.4565 S.3          1    LIG   0.0000
   4 C4          -0.4618     1.2924     1.2924 C.2          1    LIG   0.0000
   5 C5           1.0000     1.0000     1.0000 C.3          1    LIG   0.0000
   6 N6           1.8487     1.8487     1.8487 N.4          1    LIG   1.0000
   7 C7           1.0005     2.6969     2.6969 C.3          1    LIG   0.0000
   8 C8           1.2120     4.1876     2.4854 C.3          1    LIG   0.0000
   9 C9           0.2602     4.9051     3.4309 C.3          1    LIG   0.0000
  10 C10         -1.1639     4.3938     3.3180 C.3          1    LIG   0.0000
  11 C11         -1.1978     3.2361     4.2902 C.3          1    LIG   0.0000
  12 C12          0.1760     3.2693     4.9421 C.3          1    LIG   0.0000
  13 C13          1.0925     2.3273     4.1726 C.3          1    LIG   0.0000
  14 N14          0.5639     4.6775     4.8459 N.4          1    LIG   1.0000
  15 C15         -0.2037     5.5508     5.7498 C.3          1    LIG   0.0000
  16 C16         -1.2447     2.2167     0.6760 C.2          1    LIG   0.0000
  17 C17         -2.5846     2.2824     1.1432 C.2          1    LIG   0.0000
  18 Br18        -3.9714     3.4952     0.4745 Br           1    LIG   0.0000
  19 H            2.4261     1.2714     2.4261 H            1    LIG   0.0000
  20 H            2.4261     2.4261     1.2714 H            1    LIG   0.0000
  21 H            0.0575     2.5089     2.4223 H            1    LIG   0.0000
  22 H            0.2779     5.8866     3.2400 H            1    LIG   0.0000
  23 H            0.1140     2.9897     5.9002 H            1    LIG   0.0000
  24 H            1.5446     4.7804     5.0122 H            1    LIG   0.0000
  25 H           -4.8626     1.8747     2.4794 H            1    LIG   0.0000
  26 H           -4.5269     0.2959     2.7275 H            1    LIG   0.0000
  27 H           -4.0784     1.4098     3.8343 H            1    LIG   0.0000
  28 H            1.1925     0.0377     1.1925 H            1    LIG   0.0000
  29 H            1.1925     1.1925     0.0377 H            1    LIG   0.0000
  30 H            2.1578     4.4344     2.6963 H            1    LIG   0.0000
  31 H            1.0066     4.4334     1.5381 H            1    LIG   0.0000
  32 H           -1.3608     4.0854     2.3873 H            1    LIG   0.0000
  33 H           -1.8202     5.1011     3.5806 H            1    LIG   0.0000
  34 H           -1.9186     3.3641     4.9715 H            1    LIG   0.0000
  35 H           -1.3432     2.3714     3.8096 H            1    LIG   0.0000
  36 H            0.7982     1.3810     4.3059 H            1    LIG   0.0000
  37 H            2.0344     2.4317     4.4920 H            1    LIG   0.0000
  38 H            0.0448     5.3505     6.6975 H            1    LIG   0.0000
  39 H            0.0045     6.5073     5.5456 H            1    LIG   0.0000
  40 H           -1.1817     5.3875     5.6201 H            1    LIG   0.0000
  41 H           -0.9021     2.8081    -0.0540 H            1    LIG   0.0000
@<TRIPOS>BOND
   1        1        2 1
   2        2        3 1
   3        3        4 1
   4        4        5 1
   5        5        6 1
   6        6        7 1
   7        7        8 1
   8        8        9 1
   9        9       10 1
  10       10       11 1
  11       11       12 1
  12       12       13 1
  13       13        7 1
  14       12       14 1
  15       14        9 1
  16       14       15 1
  17        4       16 2
  18       16       17 1
  19       17        2 2
  20       17       18 1
  21        6       19 1
  22        6       20 1
  23        7       21 1
  24        9       22 1
  25       12       23 1
  26       14       24 1
  27        1       25 1
  28        1       26 1
  29        1       27 1
  30        5       28 1
  31        5       29 1
  32        8       30 1
  33        8       31 1
  34       10       32 1
  35       10       33 1
  36       11       34 1
  37       11       35 1
  38       13       36 1
  39       13       37 1
  40       15       38 1
  41       15       39 1
  42       15       40 1
  43       16       41 1

@<TRIPOS>MOLECULE

  41   43
SMALL
USER_CHARGES
@<TRIPOS>ATOM
   1 C1          -4.2008     2.8486     1.2220 C.3          1    LIG   0.0000
   2 C2          -2.8678     2.1448     1.4005 C.2          1    LIG   0.0000
   3 S3          -1.4433     2.4565     0.5208 S.3          1    LIG   0.0000
   4 C4          -0.4618     1.2924     1.2924 C.2          1    LIG   0.0000
   5 C5           1.0000     1.0000     1.0000 C.3          1    LIG   0.0000
   6 N6           1.8487     1.8487     1.8487 N.4          1    LIG   1.0000
   7 C7           1.0005     2.6969     2.6969 C.3          1    LIG   0.0000
   8 C8           1.2120     4.1876     2.4854 C.3          1    LIG   0.0000
   9 C9           0.2602     4.9051     3.4309 C.3          1    LIG   0.0000
  10 C10         -1.1639     4.3938     3.3180 C.3          1    LIG   0.0000
  11 C11         -1.1978     3.2361     4.2902 C.3          1    LIG   0.0000
  12 C12          0.1760     3.2693     4.9421 C.3          1    LIG   0.0000
  13 C13          1.0925     2.3273     4.1726 C.3          1    LIG   0.0000
  14 N14          0.5639     4.6775     4.8459 N.4          1    LIG   1.0000
  15 C15         -0.2037     5.5508     5.7498 C.3          1    LIG   0.0000
  16 C16         -1.2428     0.6808     2.2215 C.2          1    LIG   0.0000
  17 C17         -2.5816     1.1508     2.2900 C.2          1    LIG   0.0000
  18 Br18        -3.9644     0.4920     3.5127 Br           1    LIG   0.0000
  19 H            2.4261     1.2714     2.4261 H            1    LIG   0.0000
  20 H            2.4261     2.4261     1.2714 H            1    LIG   0.0000
  21 H            0.0575     2.5089     2.4223 H            1    LIG   0.0000
  22 H            0.2779     5.8866     3.2400 H            1    LIG   0.0000
  23 H            0.1140     2.9897     5.9002 H            1    LIG   0.0000
  24 H            1.5446     4.7804     5.0122 H            1    LIG   0.0000
  25 H           -4.8660     2.4710     1.8663 H            1    LIG   0.0000
  26 H           -4.0871     3.8269     1.3953 H            1    LIG   0.0000
  27 H           -4.5276     2.7114     0.2869 H            1    LIG   0.0000
  28 H            1.1925     0.0377     1.1925 H            1    LIG   0.0000
  29 H            1.1925     1.1925     0.0377 H            1    LIG   0.0000
  30 H            2.1578     4.4344     2.6963 H            1    LIG   0.0000
  31 H            1.0066     4.4334     1.5381 H            1    LIG   0.0000
  32 H           -1.3608     4.0854     2.3873 H            1    LIG   0.0000
  33 H           -1.8202     5.1011     3.5806 H            1    LIG   0.0000
  34 H           -1.9186     3.3641     4.9715 H            1    LIG   0.0000
  35 H           -1.3432     2.3714     3.8096 H            1    LIG   0.0000
  36 H            0.7982     1.3810     4.3059 H            1    LIG   0.0000
  37 H            2.0344     2.4317     4.4920 H            1    LIG   0.0000
  38 H            0.0448     5.3505     6.6975 H            1    LIG   0.0000
  39 H            0.0045     6.5073     5.5456 H            1    LIG   0.0000
  40 H           -1.1817     5.3875     5.6201 H            1    LIG   0.0000
  41 H           -0.8996    -0.0477     2.8143 H            1    LIG   0.0000
@<TRIPOS>BOND
   1        1        2 1
   2        2        3 1
   3        3        4 1
   4        4        5 1
   5        5        6 1
   6        6        7 1
   7        7        8 1
   8        8        9 1
   9        9       10 1
  10       10       11 1
  11       11       12 1
  12       12       13 1
  13       13        7 1
  14       12       14 1
  15       14        9 1
  16       14       15 1
  17        4       16 2
  18       16       17 1
  19       17        2 2
  20       17       18 1
  21        6       19 1
  22        6       20 1
  23        7       21 1
  24        9       22 1
  25       12       23 1
  26       14       24 1
  27        1       25 1
  28        1       26 1
  29        1       27 1
  30        5       28 1
  31        5       29 1
  32        8       30 1
  33        8       31 1
  34       10       32 1
  35       10       33 1
  36       11       34 1
  37       11       35 1
  38       13       36 1
  39       13       37 1
  40       15       38 1
  41       15       39 1
  42       15       40 1
  43       16       41 1

@<TRIPOS>MOLECULE

  41   43
SMALL
USER_CHARGES
@<TRIPOS>ATOM
   1 C1          -4.1972     1.2310     2.8576 C.3          1    LIG   0.0000
   2 C2          -2.8671     1.4022     2.1464 C.2          1    LIG   0.0000
   3 S3          -1.4433     0.5208     2.4565 S.3          1    LIG   0.0000
   4 C4          -0.4618     1.2924     1.2924 C.2          1    LIG   0.0000
   5 C5           1.0000     1.0000     1.0000 C.3          1    LIG   0.0000
   6 N6           1.8487     1.8487     1.8487 N.4          1    LIG   1.0000
   7 C7           1.0011     2.6963     2.6963 C.3          1    LIG   0.0000
   8 C8           1.3043     4.1576     2.3931 C.3          1    LIG   0.0000
   9 C9           2.5133     4.6561     3.1675 C.3          1    LIG   0.0000
  10 C10          1.9933     5.3830     4.3926 C.3          1    LIG   0.0000
  11 C11          1.8784     4.2894     5.4381 C.3          1    LIG   0.0000
  12 C12          2.4179     3.0399     4.7672 C.3          1    LIG   0.0000
  13 C13          1.1849     2.3751     4.1758 C.3          1    LIG   0.0000
  14 N14          3.3222     3.5809     3.7511 N.4          1    LIG   1.0000
  15 C15          4.5896     4.0706     4.3256 C.3          1    LIG   0.0000
  16 C16         -1.2447     2.2167     0.6760 C.2          1    LIG   0.0000
  17 C17         -2.5846     2.2824     1.1432 C.2          1    LIG   0.0000
  18 Br18        -3.9714     3.4952     0.4745 Br           1    LIG   0.0000
  19 H            2.4261     1.2714     2.4261 H            1    LIG   0.0000
  20 H            2.4261     2.4261     1.2714 H            1    LIG   0.0000
  21 H            0.0464     2.5204     2.4561 H            1    LIG   0.0000
  22 H            3.0752     5.2614     2.6036 H            1    LIG   0.0000
  23 H            2.8933     2.4424     5.4130 H            1    LIG   0.0000
  24 H            3.5104     2.8842     3.0589 H            1    LIG   0.0000
  25 H           -4.8626     1.8747     2.4794 H            1    LIG   0.0000
  26 H           -4.5269     0.2959     2.7275 H            1    LIG   0.0000
  27 H           -4.0784     1.4098     3.8343 H            1    LIG   0.0000
  28 H            1.1925     0.0377     1.1925 H            1    LIG   0.0000
  29 H            1.1925     1.1925     0.0377 H            1    LIG   0.0000
  30 H            1.4846     4.2544     1.4143 H            1    LIG   0.0000
  31 H            0.5097     4.7114     2.6420 H            1    LIG   0.0000
  32 H            1.1014     5.7967     4.2099 H            1    LIG   0.0000
  33 H            2.6354     6.0911     4.6864 H            1    LIG   0.0000
  34 H            2.4231     4.5172     6.2452 H            1    LIG   0.0000
  35 H            0.9238     4.1593     5.7061 H            1    LIG   0.0000
  36 H            0.3788     2.6923     4.6754 H            1    LIG   0.0000
  37 H            1.2734     1.3845     4.2803 H            1    LIG   0.0000
  38 H            5.1012     3.3015     4.7085 H            1    LIG   0.0000
  39 H            5.1329     4.5088     3.6094 H            1    LIG   0.0000
  40 H            4.3938     4.7336     5.0482 H            1    LIG   0.0000
  41 H           -0.9021     2.8081    -0.0540 H            1    LIG   0.0000
@<TRIPOS>BOND
   1        1        2 1
   2        2        3 1
   3        3        4 1
   4        4        5 1
   5        5        6 1
   6        6        7 1
   7        7        8 1
   8        8        9 1
   9        9       10 1
  10       10       11 1
  11       11       12 1
  12       12       13 1
  13       13        7 1
  14       12       14 1
  15       14        9 1
  16       14       15 1
  17        4       16 2
  18       16       17 1
  19       17        2 2
  20       17       18 1
  21        6       19 1
  22        6       20 1
  23        7       21 1
  24        9       22 1
  25       12       23 1
  26       14       24 1
  27        1       25 1
  28        1       26 1
  29        1       27 1
  30        5       28 1
  31        5       29 1
  32        8       30 1
  33        8       31 1
  34       10       32 1
  35       10       33 1
  36       11       34 1
  37       11       35 1
  38       13       36 1
  39       13       37 1
  40       15       38 1
  41       15       39 1
  42       15       40 1
  43       16       41 1

@<TRIPOS>MOLECULE

  41   43
SMALL
USER_CHARGES
@<TRIPOS>ATOM
   1 C1          -4.2008     2.8486     1.2220 C.3          1    LIG   0.0000
   2 C2          -2.8678     2.1448     1.4005 C.2          1    LIG   0.0000
   3 S3          -1.4433     2.4565     0.5208 S.3          1    LIG   0.0000
   4 C4          -0.4618     1.2924     1.2924 C.2          1    LIG   0.0000
   5 C5           1.0000     1.0000     1.0000 C.3          1    LIG   0.0000
   6 N6           1.8487     1.8487     1.8487 N.4          1    LIG   1.0000
   7 C7           1.0011     2.6963     2.6963 C.3          1    LIG   0.0000
   8 C8           1.3043     4.1576     2.3931 C.3          1    LIG   0.0000
   9 C9           2.5133     4.6561     3.1675 C.3          1    LIG   0.0000
  10 C10          1.9933     5.3830     4.3926 C.3          1    LIG   0.0000
  11 C11          1.8784     4.2894     5.4381 C.3          1    LIG   0.0000
  12 C12          2.4179     3.0399     4.7672 C.3          1    LIG   0.0000
  13 C13          1.1849     2.3751     4.1758 C.3          1    LIG   0.0000
  14 N14          3.3222     3.5809     3.7511 N.4          1    LIG   1.0000
  15 C15          4.5896     4.0706     4.3256 C.3          1    LIG   0.0000
  16 C16         -1.2428     0.6808     2.2215 C.2          1    LIG   0.0000
  17 C17         -2.5816     1.1508     2.2900 C.2          1    LIG   0.0000
  18 Br18        -3.9644     0.4920     3.5127 Br           1    LIG   0.0000
  19 H            2.4261     1.2714     2.4261 H            1    LIG   0.0000
  20 H            2.4261     2.4261     1.2714 H            1    LIG   0.0000
  21 H            0.0464     2.5204     2.4561 H            1    LIG   0.0000
  22 H            3.0752     5.2614     2.6036 H            1    LIG   0.0000
  23 H            2.8933     2.4424     5.4130 H            1    LIG   0.0000
  24 H            3.5104     2.8842     3.0589 H            1    LIG   0.0000
  25 H           -4.8660     2.4710     1.8663 H            1    LIG   0.0000
  26 H           -4.0871     3.8269     1.3953 H            1    LIG   0.0000
  27 H           -4.5276     2.7114     0.2869 H            1    LIG   0.0000
  28 H            1.1925     0.0377     1.1925 H            1    LIG   0.0000
  29 H            1.1925     1.1925     0.0377 H            1    LIG   0.0000
  30 H            1.4846     4.2544     1.4143 H            1    LIG   0.0000
  31 H            0.5097     4.7114     2.6420 H            1    LIG   0.0000
  32 H            1.1014     5.7967     4.2099 H            1    LIG   0.0000
  33 H            2.6354     6.0911     4.6864 H            1    LIG   0.0000
  34 H            2.4231     4.5172     6.2452 H            1    LIG   0.0000
  35 H            0.9238     4.1593     5.7061 H            1    LIG   0.0000
  36 H            0.3788     2.6923     4.6754 H            1    LIG   0.0000
  37 H            1.2734     1.3845     4.2803 H            1    LIG   0.0000
  38 H            5.1012     3.3015     4.7085 H            1    LIG   0.0000
  39 H            5.1329     4.5088     3.6094 H            1    LIG   0.0000
  40 H            4.3938     4.7336     5.0482 H            1    LIG   0.0000
  41 H           -0.8996    -0.0477     2.8143 H            1    LIG   0.0000
@<TRIPOS>BOND
   1        1        2 1
   2        2        3 1
   3        3        4 1
   4        4        5 1
   5        5        6 1
   6        6        7 1
   7        7        8 1
   8        8        9 1
   9        9       10 1
  10       10       11 1
  11       11       12 1
  12       12       13 1
  13       13        7 1
  14       12       14 1
  15       14        9 1
  16       14       15 1
  17        4       16 2
  18       16       17 1
  19       17        2 2
  20       17       18 1
  21        6       19 1
  22        6       20 1
  23        7       21 1
  24        9       22 1
  25       12       23 1
  26       14       24 1
  27        1       25 1
  28        1       26 1
  29        1       27 1
  30        5       28 1
  31        5       29 1
  32        8       30 1
  33        8       31 1
  34       10       32 1
  35       10       33 1
  36       11       34 1
  37       11       35 1
  38       13       36 1
  39       13       37 1
  40       15       38 1
  41       15       39 1
  42       15       40 1
  43       16       41 1

