@<TRIPOS>MOLECULE
*****
 41 43 0 0 0
SMALL
USER_CHARGES

@<TRIPOS>ATOM
      1 C1         -4.1972    1.2310    2.8576 C.3     1  LIG1        0.0000
      2 C2         -2.8671    1.4022    2.1464 C.2     1  LIG1        0.0000
      3 S3         -1.4433    0.5208    2.4565 S.3     1  LIG1        0.0000
      4 C4         -0.4618    1.2924    1.2924 C.2     1  LIG1        0.0000
      5 C5          1.0000    1.0000    1.0000 C.3     1  LIG1        0.0000
      6 N6          1.8487    1.8487    1.8487 N.4     1  LIG1        1.0000
      7 C7          1.5660    3.2624    1.5660 C.3     1  LIG1        0.0000
      8 C8          2.7712    4.0447    1.0691 C.3     1  LIG1        0.0000
      9 C9          2.2999    5.4706    0.8257 C.3     1  LIG1        0.0000
     10 C10         1.0472    5.5291   -0.0286 C.3     1  LIG1        0.0000
     11 C11        -0.0712    5.4169    0.9829 C.3     1  LIG1        0.0000
     12 C12         0.6495    5.4156    2.3223 C.3     1  LIG1        0.0000
     13 C13         0.8890    3.9691    2.7343 C.3     1  LIG1        0.0000
     14 N14         1.8790    6.1609    2.0474 N.4     1  LIG1        1.0000
     15 C15         1.6481    7.6017    1.8471 C.3     1  LIG1        0.0000
     16 C16        -1.2447    2.2167    0.6760 C.2     1  LIG1        0.0000
     17 C17        -2.5846    2.2824    1.1432 C.2     1  LIG1        0.0000
     18 Br18       -3.9714    3.4952    0.4745 Br      1  LIG1        0.0000
     19 H           1.6563    1.6563    2.8110 H       1  LIG1        0.0000
     20 H           2.8110    1.6563    1.6563 H       1  LIG1        0.0000
     21 H           0.9035    3.2683    0.8169 H       1  LIG1        0.0000
     22 H           3.0297    5.9918    0.3831 H       1  LIG1        0.0000
     23 H           0.1023    5.8886    3.0129 H       1  LIG1        0.0000
     24 H           2.5460    6.0136    2.7777 H       1  LIG1        0.0000
     25 H          -4.8626    1.8747    2.4794 H       1  LIG1        0.0000
     26 H          -4.5269    0.2959    2.7275 H       1  LIG1        0.0000
     27 H          -4.0784    1.4098    3.8343 H       1  LIG1        0.0000
     28 H           1.1925    0.0377    1.1925 H       1  LIG1        0.0000
     29 H           1.1925    1.1925    0.0377 H       1  LIG1        0.0000
     30 H           3.4960    4.0346    1.7579 H       1  LIG1        0.0000
     31 H           3.1140    3.6455    0.2187 H       1  LIG1        0.0000
     32 H           1.0206    4.7688   -0.6775 H       1  LIG1        0.0000
     33 H           0.9938    6.3946   -0.5267 H       1  LIG1        0.0000
     34 H          -0.6935    6.1966    0.9139 H       1  LIG1        0.0000
     35 H          -0.5844    4.5684    0.8538 H       1  LIG1        0.0000
     36 H           0.0175    3.5252    2.9425 H       1  LIG1        0.0000
     37 H           1.4800    3.9376    3.5404 H       1  LIG1        0.0000
     38 H           1.3644    8.0171    2.7114 H       1  LIG1        0.0000
     39 H           2.4927    8.0338    1.5310 H       1  LIG1        0.0000
     40 H           0.9305    7.7323    1.1631 H       1  LIG1        0.0000
     41 H          -0.9021    2.8081   -0.0540 H       1  LIG1        0.0000
@<TRIPOS>UNITY_ATOM_ATTR
6 1
charge 1
14 1
charge 1
@<TRIPOS>BOND
     1     1     2    1
     2     2     3    1
     3     3     4    1
     4     4     5    1
     5     5     6    1
     6     6     7    1
     7     7     8    1
     8     8     9    1
     9     9    10    1
    10    10    11    1
    11    11    12    1
    12    12    13    1
    13    13     7    1
    14    12    14    1
    15    14     9    1
    16    14    15    1
    17     4    16    2
    18    16    17    1
    19    17     2    2
    20    17    18    1
    21     6    19    1
    22     6    20    1
    23     7    21    1
    24     9    22    1
    25    12    23    1
    26    14    24    1
    27     1    25    1
    28     1    26    1
    29     1    27    1
    30     5    28    1
    31     5    29    1
    32     8    30    1
    33     8    31    1
    34    10    32    1
    35    10    33    1
    36    11    34    1
    37    11    35    1
    38    13    36    1
    39    13    37    1
    40    15    38    1
    41    15    39    1
    42    15    40    1
    43    16    41    1
