@<TRIPOS>MOLECULE
*****
 41 43 0 0 0
SMALL
USER_CHARGES

@<TRIPOS>ATOM
      1 C1         -4.2008    2.8486    1.2220 C.3     1  LIG1        0.0000
      2 C2         -2.8678    2.1448    1.4005 C.2     1  LIG1        0.0000
      3 S3         -1.4433    2.4565    0.5208 S.3     1  LIG1        0.0000
      4 C4         -0.4618    1.2924    1.2924 C.2     1  LIG1        0.0000
      5 C5          1.0000    1.0000    1.0000 C.3     1  LIG1        0.0000
      6 N6          1.8487    1.8487    1.8487 N.4     1  LIG1        1.0000
      7 C7          1.5660    3.2624    1.5660 C.3     1  LIG1        0.0000
      8 C8          1.8256    3.6664    0.1234 C.3     1  LIG1        0.0000
      9 C9          1.4795    5.1437    0.0116 C.3     1  LIG1        0.0000
     10 C10         0.1066    5.4616    0.5742 C.3     1  LIG1        0.0000
     11 C11         0.3800    5.7183    2.0391 C.3     1  LIG1        0.0000
     12 C12         1.8946    5.6295    2.1467 C.3     1  LIG1        0.0000
     13 C13         2.2626    4.2049    2.5401 C.3     1  LIG1        0.0000
     14 N14         2.3531    6.0081    0.8091 N.4     1  LIG1        1.0000
     15 C15         2.1695    7.4405    0.5198 C.3     1  LIG1        0.0000
     16 C16        -1.2428    0.6808    2.2215 C.2     1  LIG1        0.0000
     17 C17        -2.5816    1.1508    2.2900 C.2     1  LIG1        0.0000
     18 Br18       -3.9644    0.4920    3.5127 Br      1  LIG1        0.0000
     19 H           1.6563    1.6563    2.8110 H       1  LIG1        0.0000
     20 H           2.8110    1.6563    1.6563 H       1  LIG1        0.0000
     21 H           0.5848    3.3844    1.7158 H       1  LIG1        0.0000
     22 H           1.5195    5.4236   -0.9476 H       1  LIG1        0.0000
     23 H           2.2342    6.2780    2.8279 H       1  LIG1        0.0000
     24 H           3.3102    5.7474    0.6825 H       1  LIG1        0.0000
     25 H          -4.8660    2.4710    1.8663 H       1  LIG1        0.0000
     26 H          -4.0871    3.8269    1.3953 H       1  LIG1        0.0000
     27 H          -4.5276    2.7114    0.2869 H       1  LIG1        0.0000
     28 H           1.1925    0.0377    1.1925 H       1  LIG1        0.0000
     29 H           1.1925    1.1925    0.0377 H       1  LIG1        0.0000
     30 H           2.7875    3.5198   -0.1073 H       1  LIG1        0.0000
     31 H           1.2493    3.1302   -0.4933 H       1  LIG1        0.0000
     32 H          -0.5163    4.6882    0.4565 H       1  LIG1        0.0000
     33 H          -0.2814    6.2719    0.1350 H       1  LIG1        0.0000
     34 H           0.0563    6.6254    2.3082 H       1  LIG1        0.0000
     35 H          -0.0590    5.0248    2.6103 H       1  LIG1        0.0000
     36 H           1.9551    4.0188    3.4733 H       1  LIG1        0.0000
     37 H           3.2533    4.0811    2.4847 H       1  LIG1        0.0000
     38 H           2.7894    7.9781    1.0914 H       1  LIG1        0.0000
     39 H           2.3701    7.6142   -0.4443 H       1  LIG1        0.0000
     40 H           1.2244    7.7017    0.7160 H       1  LIG1        0.0000
     41 H          -0.8996   -0.0477    2.8143 H       1  LIG1        0.0000
@<TRIPOS>UNITY_ATOM_ATTR
6 1
charge 1
14 1
charge 1
@<TRIPOS>BOND
     1     1     2    1
     2     2     3    1
     3     3     4    1
     4     4     5    1
     5     5     6    1
     6     6     7    1
     7     7     8    1
     8     8     9    1
     9     9    10    1
    10    10    11    1
    11    11    12    1
    12    12    13    1
    13    13     7    1
    14    12    14    1
    15    14     9    1
    16    14    15    1
    17     4    16    2
    18    16    17    1
    19    17     2    2
    20    17    18    1
    21     6    19    1
    22     6    20    1
    23     7    21    1
    24     9    22    1
    25    12    23    1
    26    14    24    1
    27     1    25    1
    28     1    26    1
    29     1    27    1
    30     5    28    1
    31     5    29    1
    32     8    30    1
    33     8    31    1
    34    10    32    1
    35    10    33    1
    36    11    34    1
    37    11    35    1
    38    13    36    1
    39    13    37    1
    40    15    38    1
    41    15    39    1
    42    15    40    1
    43    16    41    1
