@<TRIPOS>MOLECULE
*****
 41 43 0 0 0
SMALL
USER_CHARGES

@<TRIPOS>ATOM
      1 C1         -4.1972    1.2310    2.8576 C.3     1  LIG1        0.0000
      2 C2         -2.8671    1.4022    2.1464 C.2     1  LIG1        0.0000
      3 S3         -1.4433    0.5208    2.4565 S.3     1  LIG1        0.0000
      4 C4         -0.4618    1.2924    1.2924 C.2     1  LIG1        0.0000
      5 C5          1.0000    1.0000    1.0000 C.3     1  LIG1        0.0000
      6 N6          1.8487    1.8487    1.8487 N.4     1  LIG1        1.0000
      7 C7          1.5662    3.2614    1.5662 C.3     1  LIG1        0.0000
      8 C8          2.8436    3.9324    1.0791 C.3     1  LIG1        0.0000
      9 C9          3.7238    4.3780    2.2352 C.3     1  LIG1        0.0000
     10 C10         3.4533    5.8527    2.4629 C.3     1  LIG1        0.0000
     11 C11         2.2991    5.8589    3.4479 C.3     1  LIG1        0.0000
     12 C12         2.0495    4.3987    3.7768 C.3     1  LIG1        0.0000
     13 C13         0.9814    3.9723    2.7821 C.3     1  LIG1        0.0000
     14 N14         3.3518    3.7806    3.5219 N.4     1  LIG1        1.0000
     15 C15         4.3316    4.0676    4.5865 C.3     1  LIG1        0.0000
     16 C16        -1.2447    2.2167    0.6760 C.2     1  LIG1        0.0000
     17 C17        -2.5846    2.2824    1.1432 C.2     1  LIG1        0.0000
     18 Br18       -3.9714    3.4952    0.4745 Br      1  LIG1        0.0000
     19 H           1.6563    1.6563    2.8110 H       1  LIG1        0.0000
     20 H           2.8110    1.6563    1.6563 H       1  LIG1        0.0000
     21 H           0.8925    3.3022    0.8282 H       1  LIG1        0.0000
     22 H           4.6898    4.2183    2.0321 H       1  LIG1        0.0000
     23 H           1.7528    4.2725    4.7234 H       1  LIG1        0.0000
     24 H           3.2435    2.7919    3.4181 H       1  LIG1        0.0000
     25 H          -4.8626    1.8747    2.4794 H       1  LIG1        0.0000
     26 H          -4.5269    0.2959    2.7275 H       1  LIG1        0.0000
     27 H          -4.0784    1.4098    3.8343 H       1  LIG1        0.0000
     28 H           1.1925    0.0377    1.1925 H       1  LIG1        0.0000
     29 H           1.1925    1.1925    0.0377 H       1  LIG1        0.0000
     30 H           3.3546    3.2842    0.5145 H       1  LIG1        0.0000
     31 H           2.6001    4.7324    0.5307 H       1  LIG1        0.0000
     32 H           3.1955    6.3040    1.6087 H       1  LIG1        0.0000
     33 H           4.2555    6.3066    2.8508 H       1  LIG1        0.0000
     34 H           2.5451    6.3673    4.2731 H       1  LIG1        0.0000
     35 H           1.4867    6.2690    3.0335 H       1  LIG1        0.0000
     36 H           0.4889    4.7855    2.4721 H       1  LIG1        0.0000
     37 H           0.3451    3.3521    3.2410 H       1  LIG1        0.0000
     38 H           4.0322    3.6396    5.4393 H       1  LIG1        0.0000
     39 H           5.2246    3.7012    4.3253 H       1  LIG1        0.0000
     40 H           4.4022    5.0566    4.7168 H       1  LIG1        0.0000
     41 H          -0.9021    2.8081   -0.0540 H       1  LIG1        0.0000
@<TRIPOS>UNITY_ATOM_ATTR
6 1
charge 1
14 1
charge 1
@<TRIPOS>BOND
     1     1     2    1
     2     2     3    1
     3     3     4    1
     4     4     5    1
     5     5     6    1
     6     6     7    1
     7     7     8    1
     8     8     9    1
     9     9    10    1
    10    10    11    1
    11    11    12    1
    12    12    13    1
    13    13     7    1
    14    12    14    1
    15    14     9    1
    16    14    15    1
    17     4    16    2
    18    16    17    1
    19    17     2    2
    20    17    18    1
    21     6    19    1
    22     6    20    1
    23     7    21    1
    24     9    22    1
    25    12    23    1
    26    14    24    1
    27     1    25    1
    28     1    26    1
    29     1    27    1
    30     5    28    1
    31     5    29    1
    32     8    30    1
    33     8    31    1
    34    10    32    1
    35    10    33    1
    36    11    34    1
    37    11    35    1
    38    13    36    1
    39    13    37    1
    40    15    38    1
    41    15    39    1
    42    15    40    1
    43    16    41    1
