@<TRIPOS>MOLECULE
*****
 41 43 0 0 0
SMALL
USER_CHARGES

@<TRIPOS>ATOM
      1 C1         -4.2008    2.8486    1.2220 C.3     1  LIG1        0.0000
      2 C2         -2.8678    2.1448    1.4005 C.2     1  LIG1        0.0000
      3 S3         -1.4433    2.4565    0.5208 S.3     1  LIG1        0.0000
      4 C4         -0.4618    1.2924    1.2924 C.2     1  LIG1        0.0000
      5 C5          1.0000    1.0000    1.0000 C.3     1  LIG1        0.0000
      6 N6          1.8487    1.8487    1.8487 N.4     1  LIG1        1.0000
      7 C7          1.0011    2.6963    2.6963 C.3     1  LIG1        0.0000
      8 C8          1.3043    4.1576    2.3931 C.3     1  LIG1        0.0000
      9 C9          2.5133    4.6561    3.1675 C.3     1  LIG1        0.0000
     10 C10         1.9933    5.3830    4.3926 C.3     1  LIG1        0.0000
     11 C11         1.8784    4.2894    5.4381 C.3     1  LIG1        0.0000
     12 C12         2.4179    3.0399    4.7672 C.3     1  LIG1        0.0000
     13 C13         1.1849    2.3751    4.1758 C.3     1  LIG1        0.0000
     14 N14         3.3222    3.5809    3.7511 N.4     1  LIG1        1.0000
     15 C15         4.5896    4.0706    4.3256 C.3     1  LIG1        0.0000
     16 C16        -1.2428    0.6808    2.2215 C.2     1  LIG1        0.0000
     17 C17        -2.5816    1.1508    2.2900 C.2     1  LIG1        0.0000
     18 Br18       -3.9644    0.4920    3.5127 Br      1  LIG1        0.0000
     19 H           2.4261    1.2714    2.4261 H       1  LIG1        0.0000
     20 H           2.4261    2.4261    1.2714 H       1  LIG1        0.0000
     21 H           0.0464    2.5204    2.4561 H       1  LIG1        0.0000
     22 H           3.0752    5.2614    2.6036 H       1  LIG1        0.0000
     23 H           2.8933    2.4424    5.4130 H       1  LIG1        0.0000
     24 H           3.5104    2.8842    3.0589 H       1  LIG1        0.0000
     25 H          -4.8660    2.4710    1.8663 H       1  LIG1        0.0000
     26 H          -4.0871    3.8269    1.3953 H       1  LIG1        0.0000
     27 H          -4.5276    2.7114    0.2869 H       1  LIG1        0.0000
     28 H           1.1925    0.0377    1.1925 H       1  LIG1        0.0000
     29 H           1.1925    1.1925    0.0377 H       1  LIG1        0.0000
     30 H           1.4846    4.2544    1.4143 H       1  LIG1        0.0000
     31 H           0.5097    4.7114    2.6420 H       1  LIG1        0.0000
     32 H           1.1014    5.7967    4.2099 H       1  LIG1        0.0000
     33 H           2.6354    6.0911    4.6864 H       1  LIG1        0.0000
     34 H           2.4231    4.5172    6.2452 H       1  LIG1        0.0000
     35 H           0.9238    4.1593    5.7061 H       1  LIG1        0.0000
     36 H           0.3788    2.6923    4.6754 H       1  LIG1        0.0000
     37 H           1.2734    1.3845    4.2803 H       1  LIG1        0.0000
     38 H           5.1012    3.3015    4.7085 H       1  LIG1        0.0000
     39 H           5.1329    4.5088    3.6094 H       1  LIG1        0.0000
     40 H           4.3938    4.7336    5.0482 H       1  LIG1        0.0000
     41 H          -0.8996   -0.0477    2.8143 H       1  LIG1        0.0000
@<TRIPOS>UNITY_ATOM_ATTR
6 1
charge 1
14 1
charge 1
@<TRIPOS>BOND
     1     1     2    1
     2     2     3    1
     3     3     4    1
     4     4     5    1
     5     5     6    1
     6     6     7    1
     7     7     8    1
     8     8     9    1
     9     9    10    1
    10    10    11    1
    11    11    12    1
    12    12    13    1
    13    13     7    1
    14    12    14    1
    15    14     9    1
    16    14    15    1
    17     4    16    2
    18    16    17    1
    19    17     2    2
    20    17    18    1
    21     6    19    1
    22     6    20    1
    23     7    21    1
    24     9    22    1
    25    12    23    1
    26    14    24    1
    27     1    25    1
    28     1    26    1
    29     1    27    1
    30     5    28    1
    31     5    29    1
    32     8    30    1
    33     8    31    1
    34    10    32    1
    35    10    33    1
    36    11    34    1
    37    11    35    1
    38    13    36    1
    39    13    37    1
    40    15    38    1
    41    15    39    1
    42    15    40    1
    43    16    41    1
