@<TRIPOS>MOLECULE
*****
 41 43 0 0 0
SMALL
USER_CHARGES

@<TRIPOS>ATOM
      1 C1         -4.1972    1.2310    2.8576 C.3     1  LIG1        0.0000
      2 C2         -2.8671    1.4022    2.1464 C.2     1  LIG1        0.0000
      3 S3         -1.4433    0.5208    2.4565 S.3     1  LIG1        0.0000
      4 C4         -0.4618    1.2924    1.2924 C.2     1  LIG1        0.0000
      5 C5          1.0000    1.0000    1.0000 C.3     1  LIG1        0.0000
      6 N6          1.8487    1.8487    1.8487 N.4     1  LIG1        1.0000
      7 C7          1.0005    2.6969    2.6969 C.3     1  LIG1        0.0000
      8 C8          1.2120    4.1876    2.4854 C.3     1  LIG1        0.0000
      9 C9          0.2602    4.9051    3.4309 C.3     1  LIG1        0.0000
     10 C10        -1.1639    4.3938    3.3180 C.3     1  LIG1        0.0000
     11 C11        -1.1978    3.2361    4.2902 C.3     1  LIG1        0.0000
     12 C12         0.1760    3.2693    4.9421 C.3     1  LIG1        0.0000
     13 C13         1.0925    2.3273    4.1726 C.3     1  LIG1        0.0000
     14 N14         0.5639    4.6775    4.8459 N.4     1  LIG1        1.0000
     15 C15        -0.2037    5.5508    5.7498 C.3     1  LIG1        0.0000
     16 C16        -1.2447    2.2167    0.6760 C.2     1  LIG1        0.0000
     17 C17        -2.5846    2.2824    1.1432 C.2     1  LIG1        0.0000
     18 Br18       -3.9714    3.4952    0.4745 Br      1  LIG1        0.0000
     19 H           2.4261    1.2714    2.4261 H       1  LIG1        0.0000
     20 H           2.4261    2.4261    1.2714 H       1  LIG1        0.0000
     21 H           0.0575    2.5089    2.4223 H       1  LIG1        0.0000
     22 H           0.2779    5.8866    3.2400 H       1  LIG1        0.0000
     23 H           0.1140    2.9897    5.9002 H       1  LIG1        0.0000
     24 H           1.5446    4.7804    5.0122 H       1  LIG1        0.0000
     25 H          -4.8626    1.8747    2.4794 H       1  LIG1        0.0000
     26 H          -4.5269    0.2959    2.7275 H       1  LIG1        0.0000
     27 H          -4.0784    1.4098    3.8343 H       1  LIG1        0.0000
     28 H           1.1925    0.0377    1.1925 H       1  LIG1        0.0000
     29 H           1.1925    1.1925    0.0377 H       1  LIG1        0.0000
     30 H           2.1578    4.4344    2.6963 H       1  LIG1        0.0000
     31 H           1.0066    4.4334    1.5381 H       1  LIG1        0.0000
     32 H          -1.3608    4.0854    2.3873 H       1  LIG1        0.0000
     33 H          -1.8202    5.1011    3.5806 H       1  LIG1        0.0000
     34 H          -1.9186    3.3641    4.9715 H       1  LIG1        0.0000
     35 H          -1.3432    2.3714    3.8096 H       1  LIG1        0.0000
     36 H           0.7982    1.3810    4.3059 H       1  LIG1        0.0000
     37 H           2.0344    2.4317    4.4920 H       1  LIG1        0.0000
     38 H           0.0448    5.3505    6.6975 H       1  LIG1        0.0000
     39 H           0.0045    6.5073    5.5456 H       1  LIG1        0.0000
     40 H          -1.1817    5.3875    5.6201 H       1  LIG1        0.0000
     41 H          -0.9021    2.8081   -0.0540 H       1  LIG1        0.0000
@<TRIPOS>UNITY_ATOM_ATTR
6 1
charge 1
14 1
charge 1
@<TRIPOS>BOND
     1     1     2    1
     2     2     3    1
     3     3     4    1
     4     4     5    1
     5     5     6    1
     6     6     7    1
     7     7     8    1
     8     8     9    1
     9     9    10    1
    10    10    11    1
    11    11    12    1
    12    12    13    1
    13    13     7    1
    14    12    14    1
    15    14     9    1
    16    14    15    1
    17     4    16    2
    18    16    17    1
    19    17     2    2
    20    17    18    1
    21     6    19    1
    22     6    20    1
    23     7    21    1
    24     9    22    1
    25    12    23    1
    26    14    24    1
    27     1    25    1
    28     1    26    1
    29     1    27    1
    30     5    28    1
    31     5    29    1
    32     8    30    1
    33     8    31    1
    34    10    32    1
    35    10    33    1
    36    11    34    1
    37    11    35    1
    38    13    36    1
    39    13    37    1
    40    15    38    1
    41    15    39    1
    42    15    40    1
    43    16    41    1
