@<TRIPOS>MOLECULE

  22   23
SMALL
USER_CHARGES
@<TRIPOS>ATOM
   1 C1           1.0000     1.0000     1.0000 C.3          1    LIG   0.0000
   2 O2           1.8198     1.8198     1.8198 O.3          1    LIG   0.0000
   3 C3           1.6578     3.1512     1.6578 C.ar         1    LIG   0.0000
   4 C4           0.7207     3.5792     0.7224 C.ar         1    LIG   0.0000
   5 C5           0.5214     4.9415     0.5243 C.ar         1    LIG   0.0000
   6 C6           1.2470     5.8814     1.2490 C.ar         1    LIG   0.0000
   7 C7           2.1811     5.4437     2.1822 C.ar         1    LIG   0.0000
   8 C8           2.8995     6.3932     2.9021 C.ar         1    LIG   0.0000
   9 C9           3.8410     5.9874     3.8431 C.ar         1    LIG   0.0000
  10 C10          4.0650     4.6321     4.0650 C.ar         1    LIG   0.0000
  11 C11          3.3378     3.6985     3.3361 C.ar         1    LIG   0.0000
  12 C12          2.3910     4.0828     2.3910 C.ar         1    LIG   0.0000
  13 H            1.1925     0.0377     1.1925 H            1    LIG   0.0000
  14 H            0.0377     1.1925     1.1925 H            1    LIG   0.0000
  15 H            1.1925     1.1925     0.0377 H            1    LIG   0.0000
  16 H            0.1940     2.9117     0.1960 H            1    LIG   0.0000
  17 H           -0.1521     5.2492    -0.1477 H            1    LIG   0.0000
  18 H            1.0990     6.8592     1.1010 H            1    LIG   0.0000
  19 H            2.7393     7.3674     2.7433 H            1    LIG   0.0000
  20 H            4.3569     6.6702     4.3603 H            1    LIG   0.0000
  21 H            4.7400     4.3338     4.7398 H            1    LIG   0.0000
  22 H            3.4992     2.7245     3.4948 H            1    LIG   0.0000
@<TRIPOS>BOND
   1        1        2 1
   2        2        3 1
   3        3        4 ar
   4        4        5 ar
   5        5        6 ar
   6        6        7 ar
   7        7        8 ar
   8        8        9 ar
   9        9       10 ar
  10       10       11 ar
  11       11       12 ar
  12       12        3 ar
  13       12        7 ar
  14        1       13 1
  15        1       14 1
  16        1       15 1
  17        4       16 1
  18        5       17 1
  19        6       18 1
  20        8       19 1
  21        9       20 1
  22       10       21 1
  23       11       22 1

@<TRIPOS>MOLECULE

  22   23
SMALL
USER_CHARGES
@<TRIPOS>ATOM
   1 C1           1.0000     1.0000     1.0000 C.3          1    LIG   0.0000
   2 O2           1.8198     1.8198     1.8198 O.3          1    LIG   0.0000
   3 C3           1.6578     3.1512     1.6578 C.ar         1    LIG   0.0000
   4 C4           0.4748     3.5918     1.0725 C.ar         1    LIG   0.0000
   5 C5           0.2666     4.9547     0.8875 C.ar         1    LIG   0.0000
   6 C6           1.2258     5.8825     1.2800 C.ar         1    LIG   0.0000
   7 C7           2.4049     5.4323     1.8648 C.ar         1    LIG   0.0000
   8 C8           3.3561     6.3700     2.2546 C.ar         1    LIG   0.0000
   9 C9           4.5458     5.9514     2.8427 C.ar         1    LIG   0.0000
  10 C10          4.7855     4.5952     3.0414 C.ar         1    LIG   0.0000
  11 C11          3.8236     3.6736     2.6452 C.ar         1    LIG   0.0000
  12 C12          2.6268     4.0707     2.0561 C.ar         1    LIG   0.0000
  13 H            1.1925     0.0377     1.1925 H            1    LIG   0.0000
  14 H            0.0377     1.1925     1.1925 H            1    LIG   0.0000
  15 H            1.1925     1.1925     0.0377 H            1    LIG   0.0000
  16 H           -0.2211     2.9330     0.7866 H            1    LIG   0.0000
  17 H           -0.5836     5.2716     0.4671 H            1    LIG   0.0000
  18 H            1.0697     6.8608     1.1434 H            1    LIG   0.0000
  19 H            3.1847     7.3448     2.1121 H            1    LIG   0.0000
  20 H            5.2290     6.6258     3.1228 H            1    LIG   0.0000
  21 H            5.6384     4.2878     3.4635 H            1    LIG   0.0000
  22 H            3.9961     2.6988     2.7871 H            1    LIG   0.0000
@<TRIPOS>BOND
   1        1        2 1
   2        2        3 1
   3        3        4 ar
   4        4        5 ar
   5        5        6 ar
   6        6        7 ar
   7        7        8 ar
   8        8        9 ar
   9        9       10 ar
  10       10       11 ar
  11       11       12 ar
  12       12        3 ar
  13       12        7 ar
  14        1       13 1
  15        1       14 1
  16        1       15 1
  17        4       16 1
  18        5       17 1
  19        6       18 1
  20        8       19 1
  21        9       20 1
  22       10       21 1
  23       11       22 1

@<TRIPOS>MOLECULE

  22   23
SMALL
USER_CHARGES
@<TRIPOS>ATOM
   1 C1           1.0000     1.0000     1.0000 C.3          1    LIG   0.0000
   2 O2           1.8198     1.8198     1.8198 O.3          1    LIG   0.0000
   3 C3           1.6578     3.1512     1.6578 C.ar         1    LIG   0.0000
   4 C4           1.0703     3.5917     0.4758 C.ar         1    LIG   0.0000
   5 C5           0.8839     4.9545     0.2683 C.ar         1    LIG   0.0000
   6 C6           1.2774     5.8824     1.2270 C.ar         1    LIG   0.0000
   7 C7           1.8633     5.4322     2.4056 C.ar         1    LIG   0.0000
   8 C8           2.2513     6.3697     3.3576 C.ar         1    LIG   0.0000
   9 C9           2.8400     5.9512     4.5471 C.ar         1    LIG   0.0000
  10 C10          3.0413     4.5952     4.7856 C.ar         1    LIG   0.0000
  11 C11          2.6474     3.6737     3.8226 C.ar         1    LIG   0.0000
  12 C12          2.0561     4.0707     2.6268 C.ar         1    LIG   0.0000
  13 H            1.1925     0.0377     1.1925 H            1    LIG   0.0000
  14 H            0.0377     1.1925     1.1925 H            1    LIG   0.0000
  15 H            1.1925     1.1925     0.0377 H            1    LIG   0.0000
  16 H            0.7840     2.9329    -0.2199 H            1    LIG   0.0000
  17 H            0.4615     5.2712    -0.5810 H            1    LIG   0.0000
  18 H            1.1409     6.8606     1.0709 H            1    LIG   0.0000
  19 H            2.1072     7.3445     3.1871 H            1    LIG   0.0000
  20 H            3.1185     6.6255     5.2310 H            1    LIG   0.0000
  21 H            3.4637     4.2878     5.6383 H            1    LIG   0.0000
  22 H            2.7927     2.6992     3.9934 H            1    LIG   0.0000
@<TRIPOS>BOND
   1        1        2 1
   2        2        3 1
   3        3        4 ar
   4        4        5 ar
   5        5        6 ar
   6        6        7 ar
   7        7        8 ar
   8        8        9 ar
   9        9       10 ar
  10       10       11 ar
  11       11       12 ar
  12       12        3 ar
  13       12        7 ar
  14        1       13 1
  15        1       14 1
  16        1       15 1
  17        4       16 1
  18        5       17 1
  19        6       18 1
  20        8       19 1
  21        9       20 1
  22       10       21 1
  23       11       22 1

