@<TRIPOS>MOLECULE
*****
 22 23 0 0 0
SMALL
USER_CHARGES

@<TRIPOS>ATOM
      1 C1          1.0000    1.0000    1.0000 C.3     1  LIG1        0.0000
      2 O2          1.8198    1.8198    1.8198 O.3     1  LIG1        0.0000
      3 C3          1.6578    3.1512    1.6578 C.ar    1  LIG1        0.0000
      4 C4          0.4748    3.5918    1.0725 C.ar    1  LIG1        0.0000
      5 C5          0.2666    4.9547    0.8875 C.ar    1  LIG1        0.0000
      6 C6          1.2258    5.8825    1.2800 C.ar    1  LIG1        0.0000
      7 C7          2.4049    5.4323    1.8648 C.ar    1  LIG1        0.0000
      8 C8          3.3561    6.3700    2.2546 C.ar    1  LIG1        0.0000
      9 C9          4.5458    5.9514    2.8427 C.ar    1  LIG1        0.0000
     10 C10         4.7855    4.5952    3.0414 C.ar    1  LIG1        0.0000
     11 C11         3.8236    3.6736    2.6452 C.ar    1  LIG1        0.0000
     12 C12         2.6268    4.0707    2.0561 C.ar    1  LIG1        0.0000
     13 H           1.1925    0.0377    1.1925 H       1  LIG1        0.0000
     14 H           0.0377    1.1925    1.1925 H       1  LIG1        0.0000
     15 H           1.1925    1.1925    0.0377 H       1  LIG1        0.0000
     16 H          -0.2211    2.9330    0.7866 H       1  LIG1        0.0000
     17 H          -0.5836    5.2716    0.4671 H       1  LIG1        0.0000
     18 H           1.0697    6.8608    1.1434 H       1  LIG1        0.0000
     19 H           3.1847    7.3448    2.1121 H       1  LIG1        0.0000
     20 H           5.2290    6.6258    3.1228 H       1  LIG1        0.0000
     21 H           5.6384    4.2878    3.4635 H       1  LIG1        0.0000
     22 H           3.9961    2.6988    2.7871 H       1  LIG1        0.0000
@<TRIPOS>BOND
     1     1     2    1
     2     2     3    1
     3     3     4   ar
     4     4     5   ar
     5     5     6   ar
     6     6     7   ar
     7     7     8   ar
     8     8     9   ar
     9     9    10   ar
    10    10    11   ar
    11    11    12   ar
    12    12     3   ar
    13    12     7   ar
    14     1    13    1
    15     1    14    1
    16     1    15    1
    17     4    16    1
    18     5    17    1
    19     6    18    1
    20     8    19    1
    21     9    20    1
    22    10    21    1
    23    11    22    1
