@<TRIPOS>MOLECULE

  44   47
SMALL
USER_CHARGES
@<TRIPOS>ATOM
   1 C1           1.6682    -0.9521     2.1898 C.3          1    LIG   0.0000
   2 O2           0.5923    -0.1456     1.7334 O.3          1    LIG   0.0000
   3 C3           1.0000     1.0000     1.0000 C.3          1    LIG   0.0000
   4 C4           1.8778     1.8778     1.8778 C.2          1    LIG   0.0000
   5 N5           1.4675     2.8484     2.6587 N.2          1    LIG   0.0000
   6 N6           2.5072     3.3847     3.2637 N.pl3        1    LIG   0.0000
   7 C7           2.5839     4.4088     4.1631 C.2          1    LIG   0.0000
   8 C8           1.3869     5.0987     4.6043 C.ar         1    LIG   0.0000
   9 C9           0.7007     4.6392     5.7236 C.ar         1    LIG   0.0000
  10 C10         -0.4467     5.3065     6.1392 C.ar         1    LIG   0.0000
  11 C11         -0.8967     6.4210     5.4378 C.ar         1    LIG   0.0000
  12 C12         -0.2040     6.8738     4.3197 C.ar         1    LIG   0.0000
  13 C13          0.9443     6.2117     3.8968 C.ar         1    LIG   0.0000
  14 C14          3.7834     4.8230     4.6770 C.2          1    LIG   0.0000
  15 C15          4.9617     4.1548     4.2525 C.2          1    LIG   0.0000
  16 C16          6.2936     4.6172     4.8234 C.3          1    LIG   0.0000
  17 N17          4.8575     3.1643     3.3819 N.2          1    LIG   0.0000
  18 C18          3.6466     2.7650     2.8824 C.2          1    LIG   0.0000
  19 C19          3.2778     1.7987     1.9962 C.2          1    LIG   0.0000
  20 C20          4.1506     0.8710     1.3028 C.ar         1    LIG   0.0000
  21 C21          4.4482    -0.3580     1.8823 C.ar         1    LIG   0.0000
  22 C22          5.2868    -1.2414     1.2107 C.ar         1    LIG   0.0000
  23 C23          5.8179    -0.8923    -0.0273 C.ar         1    LIG   0.0000
  24 C24          5.5147     0.3389    -0.5995 C.ar         1    LIG   0.0000
  25 C25          4.6773     1.2285     0.0660 C.ar         1    LIG   0.0000
  26 H            1.3064    -1.7356     2.6951 H            1    LIG   0.0000
  27 H            2.1975    -1.2766     1.4059 H            1    LIG   0.0000
  28 H            2.2583    -0.4122     2.7900 H            1    LIG   0.0000
  29 H            0.1933     1.5165     0.7129 H            1    LIG   0.0000
  30 H            1.5165     0.7129     0.1933 H            1    LIG   0.0000
  31 H            1.0287     3.8379     6.2239 H            1    LIG   0.0000
  32 H           -0.9485     4.9852     6.9423 H            1    LIG   0.0000
  33 H           -1.7219     6.8987     5.7390 H            1    LIG   0.0000
  34 H           -0.5315     7.6754     3.8196 H            1    LIG   0.0000
  35 H            1.4458     6.5323     3.0933 H            1    LIG   0.0000
  36 H            3.8283     5.5758     5.3337 H            1    LIG   0.0000
  37 H            6.1393     5.3740     5.4586 H            1    LIG   0.0000
  38 H            6.7298     3.8590     5.3080 H            1    LIG   0.0000
  39 H            6.8874     4.9227     4.0790 H            1    LIG   0.0000
  40 H            4.0635    -0.6038     2.7721 H            1    LIG   0.0000
  41 H            5.5081    -2.1277     1.6175 H            1    LIG   0.0000
  42 H            6.4205    -1.5295    -0.5078 H            1    LIG   0.0000
  43 H            5.8988     0.5845    -1.4895 H            1    LIG   0.0000
  44 H            4.4565     2.1152    -0.3403 H            1    LIG   0.0000
@<TRIPOS>BOND
   1        1        2 1
   2        2        3 1
   3        3        4 1
   4        4        5 2
   5        5        6 1
   6        6        7 1
   7        7        8 1
   8        8        9 ar
   9        9       10 ar
  10       10       11 ar
  11       11       12 ar
  12       12       13 ar
  13       13        8 ar
  14        7       14 2
  15       14       15 1
  16       15       16 1
  17       15       17 2
  18       17       18 1
  19       18        6 1
  20       18       19 2
  21       19        4 1
  22       19       20 1
  23       20       21 ar
  24       21       22 ar
  25       22       23 ar
  26       23       24 ar
  27       24       25 ar
  28       25       20 ar
  29        1       26 1
  30        1       27 1
  31        1       28 1
  32        3       29 1
  33        3       30 1
  34        9       31 1
  35       10       32 1
  36       11       33 1
  37       12       34 1
  38       13       35 1
  39       14       36 1
  40       16       37 1
  41       16       38 1
  42       16       39 1
  43       21       40 1
  44       22       41 1
  45       23       42 1
  46       24       43 1
  47       25       44 1

@<TRIPOS>MOLECULE

  44   47
SMALL
USER_CHARGES
@<TRIPOS>ATOM
   1 C1           1.6682    -0.9521     2.1898 C.3          1    LIG   0.0000
   2 O2           0.5923    -0.1456     1.7334 O.3          1    LIG   0.0000
   3 C3           1.0000     1.0000     1.0000 C.3          1    LIG   0.0000
   4 C4           1.8778     1.8778     1.8778 C.2          1    LIG   0.0000
   5 N5           1.4675     2.8484     2.6587 N.2          1    LIG   0.0000
   6 N6           2.5072     3.3847     3.2637 N.pl3        1    LIG   0.0000
   7 C7           2.5839     4.4088     4.1631 C.2          1    LIG   0.0000
   8 C8           1.3869     5.0987     4.6043 C.ar         1    LIG   0.0000
   9 C9           1.4604     5.9937     5.6666 C.ar         1    LIG   0.0000
  10 C10          0.3073     6.6504     6.0835 C.ar         1    LIG   0.0000
  11 C11         -0.9026     6.4095     5.4397 C.ar         1    LIG   0.0000
  12 C12         -0.9667     5.5131     4.3779 C.ar         1    LIG   0.0000
  13 C13          0.1818     4.8515     3.9550 C.ar         1    LIG   0.0000
  14 C14          3.7834     4.8230     4.6770 C.2          1    LIG   0.0000
  15 C15          4.9617     4.1548     4.2525 C.2          1    LIG   0.0000
  16 C16          6.2936     4.6172     4.8234 C.3          1    LIG   0.0000
  17 N17          4.8575     3.1643     3.3819 N.2          1    LIG   0.0000
  18 C18          3.6466     2.7650     2.8824 C.2          1    LIG   0.0000
  19 C19          3.2778     1.7987     1.9962 C.2          1    LIG   0.0000
  20 C20          4.1506     0.8710     1.3028 C.ar         1    LIG   0.0000
  21 C21          4.4482    -0.3580     1.8823 C.ar         1    LIG   0.0000
  22 C22          5.2868    -1.2414     1.2107 C.ar         1    LIG   0.0000
  23 C23          5.8179    -0.8923    -0.0273 C.ar         1    LIG   0.0000
  24 C24          5.5147     0.3389    -0.5995 C.ar         1    LIG   0.0000
  25 C25          4.6773     1.2285     0.0660 C.ar         1    LIG   0.0000
  26 H            1.3064    -1.7356     2.6951 H            1    LIG   0.0000
  27 H            2.1975    -1.2766     1.4059 H            1    LIG   0.0000
  28 H            2.2583    -0.4122     2.7900 H            1    LIG   0.0000
  29 H            0.1933     1.5165     0.7129 H            1    LIG   0.0000
  30 H            1.5165     0.7129     0.1933 H            1    LIG   0.0000
  31 H            2.3326     6.1631     6.1255 H            1    LIG   0.0000
  32 H            0.3478     7.2958     6.8463 H            1    LIG   0.0000
  33 H           -1.7299     6.8832     5.7417 H            1    LIG   0.0000
  34 H           -1.8387     5.3441     3.9185 H            1    LIG   0.0000
  35 H            0.1414     4.2055     3.1927 H            1    LIG   0.0000
  36 H            3.8283     5.5758     5.3337 H            1    LIG   0.0000
  37 H            6.1393     5.3740     5.4586 H            1    LIG   0.0000
  38 H            6.7298     3.8590     5.3080 H            1    LIG   0.0000
  39 H            6.8874     4.9227     4.0790 H            1    LIG   0.0000
  40 H            4.0635    -0.6038     2.7721 H            1    LIG   0.0000
  41 H            5.5081    -2.1277     1.6175 H            1    LIG   0.0000
  42 H            6.4205    -1.5295    -0.5078 H            1    LIG   0.0000
  43 H            5.8988     0.5845    -1.4895 H            1    LIG   0.0000
  44 H            4.4565     2.1152    -0.3403 H            1    LIG   0.0000
@<TRIPOS>BOND
   1        1        2 1
   2        2        3 1
   3        3        4 1
   4        4        5 2
   5        5        6 1
   6        6        7 1
   7        7        8 1
   8        8        9 ar
   9        9       10 ar
  10       10       11 ar
  11       11       12 ar
  12       12       13 ar
  13       13        8 ar
  14        7       14 2
  15       14       15 1
  16       15       16 1
  17       15       17 2
  18       17       18 1
  19       18        6 1
  20       18       19 2
  21       19        4 1
  22       19       20 1
  23       20       21 ar
  24       21       22 ar
  25       22       23 ar
  26       23       24 ar
  27       24       25 ar
  28       25       20 ar
  29        1       26 1
  30        1       27 1
  31        1       28 1
  32        3       29 1
  33        3       30 1
  34        9       31 1
  35       10       32 1
  36       11       33 1
  37       12       34 1
  38       13       35 1
  39       14       36 1
  40       16       37 1
  41       16       38 1
  42       16       39 1
  43       21       40 1
  44       22       41 1
  45       23       42 1
  46       24       43 1
  47       25       44 1

@<TRIPOS>MOLECULE

  44   47
SMALL
USER_CHARGES
@<TRIPOS>ATOM
   1 C1           1.6682    -0.9521     2.1898 C.3          1    LIG   0.0000
   2 O2           0.5923    -0.1456     1.7334 O.3          1    LIG   0.0000
   3 C3           1.0000     1.0000     1.0000 C.3          1    LIG   0.0000
   4 C4           1.8778     1.8778     1.8778 C.2          1    LIG   0.0000
   5 N5           1.4675     2.8484     2.6587 N.2          1    LIG   0.0000
   6 N6           2.5072     3.3847     3.2637 N.pl3        1    LIG   0.0000
   7 C7           2.5839     4.4088     4.1631 C.2          1    LIG   0.0000
   8 C8           1.3869     5.0987     4.6043 C.ar         1    LIG   0.0000
   9 C9           0.1364     4.5853     4.2766 C.ar         1    LIG   0.0000
  10 C10         -1.0063     5.2538     4.7033 C.ar         1    LIG   0.0000
  11 C11         -0.8913     6.4227     5.4495 C.ar         1    LIG   0.0000
  12 C12          0.3634     6.9289     5.7728 C.ar         1    LIG   0.0000
  13 C13          1.5114     6.2667     5.3495 C.ar         1    LIG   0.0000
  14 C14          3.7834     4.8230     4.6770 C.2          1    LIG   0.0000
  15 C15          4.9617     4.1548     4.2525 C.2          1    LIG   0.0000
  16 C16          6.2936     4.6172     4.8234 C.3          1    LIG   0.0000
  17 N17          4.8575     3.1643     3.3819 N.2          1    LIG   0.0000
  18 C18          3.6466     2.7650     2.8824 C.2          1    LIG   0.0000
  19 C19          3.2778     1.7987     1.9962 C.2          1    LIG   0.0000
  20 C20          4.1506     0.8710     1.3028 C.ar         1    LIG   0.0000
  21 C21          4.4482    -0.3580     1.8823 C.ar         1    LIG   0.0000
  22 C22          5.2868    -1.2414     1.2107 C.ar         1    LIG   0.0000
  23 C23          5.8179    -0.8923    -0.0273 C.ar         1    LIG   0.0000
  24 C24          5.5147     0.3389    -0.5995 C.ar         1    LIG   0.0000
  25 C25          4.6773     1.2285     0.0660 C.ar         1    LIG   0.0000
  26 H            1.3064    -1.7356     2.6951 H            1    LIG   0.0000
  27 H            2.1975    -1.2766     1.4059 H            1    LIG   0.0000
  28 H            2.2583    -0.4122     2.7900 H            1    LIG   0.0000
  29 H            0.1933     1.5165     0.7129 H            1    LIG   0.0000
  30 H            1.5165     0.7129     0.1933 H            1    LIG   0.0000
  31 H            0.0597     3.7448     3.7403 H            1    LIG   0.0000
  32 H           -1.9107     4.8943     4.4736 H            1    LIG   0.0000
  33 H           -1.7147     6.9011     5.7549 H            1    LIG   0.0000
  34 H            0.4402     7.7690     6.3097 H            1    LIG   0.0000
  35 H            2.4160     6.6264     5.5783 H            1    LIG   0.0000
  36 H            3.8283     5.5758     5.3337 H            1    LIG   0.0000
  37 H            6.1393     5.3740     5.4586 H            1    LIG   0.0000
  38 H            6.7298     3.8590     5.3080 H            1    LIG   0.0000
  39 H            6.8874     4.9227     4.0790 H            1    LIG   0.0000
  40 H            4.0635    -0.6038     2.7721 H            1    LIG   0.0000
  41 H            5.5081    -2.1277     1.6175 H            1    LIG   0.0000
  42 H            6.4205    -1.5295    -0.5078 H            1    LIG   0.0000
  43 H            5.8988     0.5845    -1.4895 H            1    LIG   0.0000
  44 H            4.4565     2.1152    -0.3403 H            1    LIG   0.0000
@<TRIPOS>BOND
   1        1        2 1
   2        2        3 1
   3        3        4 1
   4        4        5 2
   5        5        6 1
   6        6        7 1
   7        7        8 1
   8        8        9 ar
   9        9       10 ar
  10       10       11 ar
  11       11       12 ar
  12       12       13 ar
  13       13        8 ar
  14        7       14 2
  15       14       15 1
  16       15       16 1
  17       15       17 2
  18       17       18 1
  19       18        6 1
  20       18       19 2
  21       19        4 1
  22       19       20 1
  23       20       21 ar
  24       21       22 ar
  25       22       23 ar
  26       23       24 ar
  27       24       25 ar
  28       25       20 ar
  29        1       26 1
  30        1       27 1
  31        1       28 1
  32        3       29 1
  33        3       30 1
  34        9       31 1
  35       10       32 1
  36       11       33 1
  37       12       34 1
  38       13       35 1
  39       14       36 1
  40       16       37 1
  41       16       38 1
  42       16       39 1
  43       21       40 1
  44       22       41 1
  45       23       42 1
  46       24       43 1
  47       25       44 1

@<TRIPOS>MOLECULE

  44   47
SMALL
USER_CHARGES
@<TRIPOS>ATOM
   1 C1           1.6682    -0.9521     2.1898 C.3          1    LIG   0.0000
   2 O2           0.5923    -0.1456     1.7334 O.3          1    LIG   0.0000
   3 C3           1.0000     1.0000     1.0000 C.3          1    LIG   0.0000
   4 C4           1.8778     1.8778     1.8778 C.2          1    LIG   0.0000
   5 N5           1.8013     1.9910     3.1822 N.2          1    LIG   0.0000
   6 N6           2.7190     2.8400     3.5965 N.pl3        1    LIG   0.0000
   7 C7           3.0284     3.2741     4.8533 C.2          1    LIG   0.0000
   8 C8           2.2945     2.7890     6.0063 C.ar         1    LIG   0.0000
   9 C9           2.7365     1.6521     6.6749 C.ar         1    LIG   0.0000
  10 C10          2.0261     1.1935     7.7793 C.ar         1    LIG   0.0000
  11 C11          0.8871     1.8703     8.2047 C.ar         1    LIG   0.0000
  12 C12          0.4525     3.0066     7.5303 C.ar         1    LIG   0.0000
  13 C13          1.1568     3.4717     6.4242 C.ar         1    LIG   0.0000
  14 C14          4.0326     4.1786     5.0722 C.2          1    LIG   0.0000
  15 C15          4.7579     4.6602     3.9509 C.2          1    LIG   0.0000
  16 C16          5.8723     5.6661     4.1959 C.3          1    LIG   0.0000
  17 N17          4.4382     4.2206     2.7450 N.2          1    LIG   0.0000
  18 C18          3.4310     3.3136     2.5494 C.2          1    LIG   0.0000
  19 C19          2.9164     2.7190     1.4373 C.2          1    LIG   0.0000
  20 C20          3.3453     2.9135     0.0656 C.ar         1    LIG   0.0000
  21 C21          4.6729     3.2308    -0.2019 C.ar         1    LIG   0.0000
  22 C22          5.0754     3.4163    -1.5203 C.ar         1    LIG   0.0000
  23 C23          4.1540     3.2838    -2.5548 C.ar         1    LIG   0.0000
  24 C24          2.8284     2.9660    -2.2780 C.ar         1    LIG   0.0000
  25 C25          2.4174     2.7794    -0.9620 C.ar         1    LIG   0.0000
  26 H            1.3064    -1.7356     2.6951 H            1    LIG   0.0000
  27 H            2.1975    -1.2766     1.4059 H            1    LIG   0.0000
  28 H            2.2583    -0.4122     2.7900 H            1    LIG   0.0000
  29 H            0.1933     1.5165     0.7129 H            1    LIG   0.0000
  30 H            1.5165     0.7129     0.1933 H            1    LIG   0.0000
  31 H            3.5558     1.1698     6.3650 H            1    LIG   0.0000
  32 H            2.3341     0.3771     8.2678 H            1    LIG   0.0000
  33 H            0.3785     1.5382     8.9991 H            1    LIG   0.0000
  34 H           -0.3664     3.4894     7.8405 H            1    LIG   0.0000
  35 H            0.8486     4.2877     5.9351 H            1    LIG   0.0000
  36 H            4.2494     4.4915     5.9969 H            1    LIG   0.0000
  37 H            5.9406     5.8560     5.1753 H            1    LIG   0.0000
  38 H            6.7389     5.2899     3.8681 H            1    LIG   0.0000
  39 H            5.6700     6.5137     3.7053 H            1    LIG   0.0000
  40 H            5.3308     3.3245     0.5454 H            1    LIG   0.0000
  41 H            6.0271     3.6450    -1.7249 H            1    LIG   0.0000
  42 H            4.4464     3.4178    -3.5017 H            1    LIG   0.0000
  43 H            2.1705     2.8716    -3.0252 H            1    LIG   0.0000
  44 H            1.4655     2.5515    -0.7571 H            1    LIG   0.0000
@<TRIPOS>BOND
   1        1        2 1
   2        2        3 1
   3        3        4 1
   4        4        5 2
   5        5        6 1
   6        6        7 1
   7        7        8 1
   8        8        9 ar
   9        9       10 ar
  10       10       11 ar
  11       11       12 ar
  12       12       13 ar
  13       13        8 ar
  14        7       14 2
  15       14       15 1
  16       15       16 1
  17       15       17 2
  18       17       18 1
  19       18        6 1
  20       18       19 2
  21       19        4 1
  22       19       20 1
  23       20       21 ar
  24       21       22 ar
  25       22       23 ar
  26       23       24 ar
  27       24       25 ar
  28       25       20 ar
  29        1       26 1
  30        1       27 1
  31        1       28 1
  32        3       29 1
  33        3       30 1
  34        9       31 1
  35       10       32 1
  36       11       33 1
  37       12       34 1
  38       13       35 1
  39       14       36 1
  40       16       37 1
  41       16       38 1
  42       16       39 1
  43       21       40 1
  44       22       41 1
  45       23       42 1
  46       24       43 1
  47       25       44 1

@<TRIPOS>MOLECULE

  44   47
SMALL
USER_CHARGES
@<TRIPOS>ATOM
   1 C1           1.6682    -0.9521     2.1898 C.3          1    LIG   0.0000
   2 O2           0.5923    -0.1456     1.7334 O.3          1    LIG   0.0000
   3 C3           1.0000     1.0000     1.0000 C.3          1    LIG   0.0000
   4 C4           1.8778     1.8778     1.8778 C.2          1    LIG   0.0000
   5 N5           1.8013     1.9910     3.1822 N.2          1    LIG   0.0000
   6 N6           2.7190     2.8400     3.5965 N.pl3        1    LIG   0.0000
   7 C7           3.0284     3.2741     4.8533 C.2          1    LIG   0.0000
   8 C8           2.2945     2.7890     6.0063 C.ar         1    LIG   0.0000
   9 C9           2.7534     3.0805     7.2867 C.ar         1    LIG   0.0000
  10 C10          2.0438     2.6106     8.3868 C.ar         1    LIG   0.0000
  11 C11          0.8882     1.8581     8.2003 C.ar         1    LIG   0.0000
  12 C12          0.4364     1.5716     6.9162 C.ar         1    LIG   0.0000
  13 C13          1.1407     2.0372     5.8104 C.ar         1    LIG   0.0000
  14 C14          4.0326     4.1786     5.0722 C.2          1    LIG   0.0000
  15 C15          4.7579     4.6602     3.9509 C.2          1    LIG   0.0000
  16 C16          5.8723     5.6661     4.1959 C.3          1    LIG   0.0000
  17 N17          4.4382     4.2206     2.7450 N.2          1    LIG   0.0000
  18 C18          3.4310     3.3136     2.5494 C.2          1    LIG   0.0000
  19 C19          2.9164     2.7190     1.4373 C.2          1    LIG   0.0000
  20 C20          3.3453     2.9135     0.0656 C.ar         1    LIG   0.0000
  21 C21          4.6729     3.2308    -0.2019 C.ar         1    LIG   0.0000
  22 C22          5.0754     3.4163    -1.5203 C.ar         1    LIG   0.0000
  23 C23          4.1540     3.2838    -2.5548 C.ar         1    LIG   0.0000
  24 C24          2.8284     2.9660    -2.2780 C.ar         1    LIG   0.0000
  25 C25          2.4174     2.7794    -0.9620 C.ar         1    LIG   0.0000
  26 H            1.3064    -1.7356     2.6951 H            1    LIG   0.0000
  27 H            2.1975    -1.2766     1.4059 H            1    LIG   0.0000
  28 H            2.2583    -0.4122     2.7900 H            1    LIG   0.0000
  29 H            0.1933     1.5165     0.7129 H            1    LIG   0.0000
  30 H            1.5165     0.7129     0.1933 H            1    LIG   0.0000
  31 H            3.5844     3.6219     7.4148 H            1    LIG   0.0000
  32 H            2.3642     2.8136     9.3121 H            1    LIG   0.0000
  33 H            0.3801     1.5217     8.9932 H            1    LIG   0.0000
  34 H           -0.3949     1.0307     6.7879 H            1    LIG   0.0000
  35 H            0.8209     1.8337     4.8850 H            1    LIG   0.0000
  36 H            4.2494     4.4915     5.9969 H            1    LIG   0.0000
  37 H            5.9406     5.8560     5.1753 H            1    LIG   0.0000
  38 H            6.7389     5.2899     3.8681 H            1    LIG   0.0000
  39 H            5.6700     6.5137     3.7053 H            1    LIG   0.0000
  40 H            5.3308     3.3245     0.5454 H            1    LIG   0.0000
  41 H            6.0271     3.6450    -1.7249 H            1    LIG   0.0000
  42 H            4.4464     3.4178    -3.5017 H            1    LIG   0.0000
  43 H            2.1705     2.8716    -3.0252 H            1    LIG   0.0000
  44 H            1.4655     2.5515    -0.7571 H            1    LIG   0.0000
@<TRIPOS>BOND
   1        1        2 1
   2        2        3 1
   3        3        4 1
   4        4        5 2
   5        5        6 1
   6        6        7 1
   7        7        8 1
   8        8        9 ar
   9        9       10 ar
  10       10       11 ar
  11       11       12 ar
  12       12       13 ar
  13       13        8 ar
  14        7       14 2
  15       14       15 1
  16       15       16 1
  17       15       17 2
  18       17       18 1
  19       18        6 1
  20       18       19 2
  21       19        4 1
  22       19       20 1
  23       20       21 ar
  24       21       22 ar
  25       22       23 ar
  26       23       24 ar
  27       24       25 ar
  28       25       20 ar
  29        1       26 1
  30        1       27 1
  31        1       28 1
  32        3       29 1
  33        3       30 1
  34        9       31 1
  35       10       32 1
  36       11       33 1
  37       12       34 1
  38       13       35 1
  39       14       36 1
  40       16       37 1
  41       16       38 1
  42       16       39 1
  43       21       40 1
  44       22       41 1
  45       23       42 1
  46       24       43 1
  47       25       44 1

@<TRIPOS>MOLECULE

  44   47
SMALL
USER_CHARGES
@<TRIPOS>ATOM
   1 C1           1.6682    -0.9521     2.1898 C.3          1    LIG   0.0000
   2 O2           0.5923    -0.1456     1.7334 O.3          1    LIG   0.0000
   3 C3           1.0000     1.0000     1.0000 C.3          1    LIG   0.0000
   4 C4           1.8778     1.8778     1.8778 C.2          1    LIG   0.0000
   5 N5           1.8013     1.9910     3.1822 N.2          1    LIG   0.0000
   6 N6           2.7190     2.8400     3.5965 N.pl3        1    LIG   0.0000
   7 C7           3.0284     3.2741     4.8533 C.2          1    LIG   0.0000
   8 C8           2.2945     2.7890     6.0063 C.ar         1    LIG   0.0000
   9 C9           1.4136     1.7222     5.8625 C.ar         1    LIG   0.0000
  10 C10          0.7134     1.2639     6.9735 C.ar         1    LIG   0.0000
  11 C11          0.8979     1.8711     8.2120 C.ar         1    LIG   0.0000
  12 C12          1.7812     2.9372     8.3467 C.ar         1    LIG   0.0000
  13 C13          2.4850     3.4023     7.2403 C.ar         1    LIG   0.0000
  14 C14          4.0326     4.1786     5.0722 C.2          1    LIG   0.0000
  15 C15          4.7579     4.6602     3.9509 C.2          1    LIG   0.0000
  16 C16          5.8723     5.6661     4.1959 C.3          1    LIG   0.0000
  17 N17          4.4382     4.2206     2.7450 N.2          1    LIG   0.0000
  18 C18          3.4310     3.3136     2.5494 C.2          1    LIG   0.0000
  19 C19          2.9164     2.7190     1.4373 C.2          1    LIG   0.0000
  20 C20          3.3453     2.9135     0.0656 C.ar         1    LIG   0.0000
  21 C21          4.6729     3.2308    -0.2019 C.ar         1    LIG   0.0000
  22 C22          5.0754     3.4163    -1.5203 C.ar         1    LIG   0.0000
  23 C23          4.1540     3.2838    -2.5548 C.ar         1    LIG   0.0000
  24 C24          2.8284     2.9660    -2.2780 C.ar         1    LIG   0.0000
  25 C25          2.4174     2.7794    -0.9620 C.ar         1    LIG   0.0000
  26 H            1.3064    -1.7356     2.6951 H            1    LIG   0.0000
  27 H            2.1975    -1.2766     1.4059 H            1    LIG   0.0000
  28 H            2.2583    -0.4122     2.7900 H            1    LIG   0.0000
  29 H            0.1933     1.5165     0.7129 H            1    LIG   0.0000
  30 H            1.5165     0.7129     0.1933 H            1    LIG   0.0000
  31 H            1.2851     1.2895     4.9701 H            1    LIG   0.0000
  32 H            0.0772     0.4978     6.8822 H            1    LIG   0.0000
  33 H            0.3931     1.5393     9.0089 H            1    LIG   0.0000
  34 H            1.9103     3.3696     9.2391 H            1    LIG   0.0000
  35 H            3.1207     4.1688     7.3312 H            1    LIG   0.0000
  36 H            4.2494     4.4915     5.9969 H            1    LIG   0.0000
  37 H            5.9406     5.8560     5.1753 H            1    LIG   0.0000
  38 H            6.7389     5.2899     3.8681 H            1    LIG   0.0000
  39 H            5.6700     6.5137     3.7053 H            1    LIG   0.0000
  40 H            5.3308     3.3245     0.5454 H            1    LIG   0.0000
  41 H            6.0271     3.6450    -1.7249 H            1    LIG   0.0000
  42 H            4.4464     3.4178    -3.5017 H            1    LIG   0.0000
  43 H            2.1705     2.8716    -3.0252 H            1    LIG   0.0000
  44 H            1.4655     2.5515    -0.7571 H            1    LIG   0.0000
@<TRIPOS>BOND
   1        1        2 1
   2        2        3 1
   3        3        4 1
   4        4        5 2
   5        5        6 1
   6        6        7 1
   7        7        8 1
   8        8        9 ar
   9        9       10 ar
  10       10       11 ar
  11       11       12 ar
  12       12       13 ar
  13       13        8 ar
  14        7       14 2
  15       14       15 1
  16       15       16 1
  17       15       17 2
  18       17       18 1
  19       18        6 1
  20       18       19 2
  21       19        4 1
  22       19       20 1
  23       20       21 ar
  24       21       22 ar
  25       22       23 ar
  26       23       24 ar
  27       24       25 ar
  28       25       20 ar
  29        1       26 1
  30        1       27 1
  31        1       28 1
  32        3       29 1
  33        3       30 1
  34        9       31 1
  35       10       32 1
  36       11       33 1
  37       12       34 1
  38       13       35 1
  39       14       36 1
  40       16       37 1
  41       16       38 1
  42       16       39 1
  43       21       40 1
  44       22       41 1
  45       23       42 1
  46       24       43 1
  47       25       44 1

@<TRIPOS>MOLECULE

  44   47
SMALL
USER_CHARGES
@<TRIPOS>ATOM
   1 C1           1.6682    -0.9521     2.1898 C.3          1    LIG   0.0000
   2 O2           0.5923    -0.1456     1.7334 O.3          1    LIG   0.0000
   3 C3           1.0000     1.0000     1.0000 C.3          1    LIG   0.0000
   4 C4           1.8778     1.8778     1.8778 C.2          1    LIG   0.0000
   5 N5           3.1822     1.8013     1.9910 N.2          1    LIG   0.0000
   6 N6           3.5965     2.7190     2.8400 N.pl3        1    LIG   0.0000
   7 C7           4.8533     3.0284     3.2741 C.2          1    LIG   0.0000
   8 C8           6.0063     2.2945     2.7890 C.ar         1    LIG   0.0000
   9 C9           6.6749     2.7365     1.6521 C.ar         1    LIG   0.0000
  10 C10          7.7793     2.0261     1.1935 C.ar         1    LIG   0.0000
  11 C11          8.2047     0.8871     1.8703 C.ar         1    LIG   0.0000
  12 C12          7.5303     0.4525     3.0066 C.ar         1    LIG   0.0000
  13 C13          6.4242     1.1568     3.4717 C.ar         1    LIG   0.0000
  14 C14          5.0722     4.0326     4.1786 C.2          1    LIG   0.0000
  15 C15          3.9509     4.7579     4.6602 C.2          1    LIG   0.0000
  16 C16          4.1959     5.8723     5.6661 C.3          1    LIG   0.0000
  17 N17          2.7450     4.4382     4.2206 N.2          1    LIG   0.0000
  18 C18          2.5494     3.4310     3.3136 C.2          1    LIG   0.0000
  19 C19          1.4373     2.9164     2.7190 C.2          1    LIG   0.0000
  20 C20          0.0656     3.3453     2.9135 C.ar         1    LIG   0.0000
  21 C21         -0.4665     4.3397     2.0993 C.ar         1    LIG   0.0000
  22 C22         -1.7827     4.7454     2.2934 C.ar         1    LIG   0.0000
  23 C23         -2.5523     4.1579     3.2929 C.ar         1    LIG   0.0000
  24 C24         -2.0120     3.1638     4.1022 C.ar         1    LIG   0.0000
  25 C25         -0.6961     2.7527     3.9153 C.ar         1    LIG   0.0000
  26 H            1.3064    -1.7356     2.6951 H            1    LIG   0.0000
  27 H            2.1975    -1.2766     1.4059 H            1    LIG   0.0000
  28 H            2.2583    -0.4122     2.7900 H            1    LIG   0.0000
  29 H            0.1933     1.5165     0.7129 H            1    LIG   0.0000
  30 H            1.5165     0.7129     0.1933 H            1    LIG   0.0000
  31 H            6.3650     3.5558     1.1698 H            1    LIG   0.0000
  32 H            8.2678     2.3341     0.3771 H            1    LIG   0.0000
  33 H            8.9991     0.3785     1.5382 H            1    LIG   0.0000
  34 H            7.8405    -0.3664     3.4894 H            1    LIG   0.0000
  35 H            5.9351     0.8486     4.2877 H            1    LIG   0.0000
  36 H            5.9969     4.2494     4.4915 H            1    LIG   0.0000
  37 H            5.1753     5.9406     5.8560 H            1    LIG   0.0000
  38 H            3.8681     6.7389     5.2899 H            1    LIG   0.0000
  39 H            3.7053     5.6700     6.5137 H            1    LIG   0.0000
  40 H            0.0910     4.7583     1.3825 H            1    LIG   0.0000
  41 H           -2.1761     5.4596     1.7144 H            1    LIG   0.0000
  42 H           -3.4983     4.4516     3.4300 H            1    LIG   0.0000
  43 H           -2.5696     2.7447     4.8187 H            1    LIG   0.0000
  44 H           -0.3023     2.0390     4.4946 H            1    LIG   0.0000
@<TRIPOS>BOND
   1        1        2 1
   2        2        3 1
   3        3        4 1
   4        4        5 2
   5        5        6 1
   6        6        7 1
   7        7        8 1
   8        8        9 ar
   9        9       10 ar
  10       10       11 ar
  11       11       12 ar
  12       12       13 ar
  13       13        8 ar
  14        7       14 2
  15       14       15 1
  16       15       16 1
  17       15       17 2
  18       17       18 1
  19       18        6 1
  20       18       19 2
  21       19        4 1
  22       19       20 1
  23       20       21 ar
  24       21       22 ar
  25       22       23 ar
  26       23       24 ar
  27       24       25 ar
  28       25       20 ar
  29        1       26 1
  30        1       27 1
  31        1       28 1
  32        3       29 1
  33        3       30 1
  34        9       31 1
  35       10       32 1
  36       11       33 1
  37       12       34 1
  38       13       35 1
  39       14       36 1
  40       16       37 1
  41       16       38 1
  42       16       39 1
  43       21       40 1
  44       22       41 1
  45       23       42 1
  46       24       43 1
  47       25       44 1

@<TRIPOS>MOLECULE

  44   47
SMALL
USER_CHARGES
@<TRIPOS>ATOM
   1 C1           1.6682    -0.9521     2.1898 C.3          1    LIG   0.0000
   2 O2           0.5923    -0.1456     1.7334 O.3          1    LIG   0.0000
   3 C3           1.0000     1.0000     1.0000 C.3          1    LIG   0.0000
   4 C4           1.8778     1.8778     1.8778 C.2          1    LIG   0.0000
   5 N5           3.1822     1.8013     1.9910 N.2          1    LIG   0.0000
   6 N6           3.5965     2.7190     2.8400 N.pl3        1    LIG   0.0000
   7 C7           4.8533     3.0284     3.2741 C.2          1    LIG   0.0000
   8 C8           6.0063     2.2945     2.7890 C.ar         1    LIG   0.0000
   9 C9           7.2867     2.7534     3.0805 C.ar         1    LIG   0.0000
  10 C10          8.3868     2.0438     2.6106 C.ar         1    LIG   0.0000
  11 C11          8.2003     0.8882     1.8581 C.ar         1    LIG   0.0000
  12 C12          6.9162     0.4364     1.5716 C.ar         1    LIG   0.0000
  13 C13          5.8104     1.1407     2.0372 C.ar         1    LIG   0.0000
  14 C14          5.0722     4.0326     4.1786 C.2          1    LIG   0.0000
  15 C15          3.9509     4.7579     4.6602 C.2          1    LIG   0.0000
  16 C16          4.1959     5.8723     5.6661 C.3          1    LIG   0.0000
  17 N17          2.7450     4.4382     4.2206 N.2          1    LIG   0.0000
  18 C18          2.5494     3.4310     3.3136 C.2          1    LIG   0.0000
  19 C19          1.4373     2.9164     2.7190 C.2          1    LIG   0.0000
  20 C20          0.0656     3.3453     2.9135 C.ar         1    LIG   0.0000
  21 C21         -0.4665     4.3397     2.0993 C.ar         1    LIG   0.0000
  22 C22         -1.7827     4.7454     2.2934 C.ar         1    LIG   0.0000
  23 C23         -2.5523     4.1579     3.2929 C.ar         1    LIG   0.0000
  24 C24         -2.0120     3.1638     4.1022 C.ar         1    LIG   0.0000
  25 C25         -0.6961     2.7527     3.9153 C.ar         1    LIG   0.0000
  26 H            1.3064    -1.7356     2.6951 H            1    LIG   0.0000
  27 H            2.1975    -1.2766     1.4059 H            1    LIG   0.0000
  28 H            2.2583    -0.4122     2.7900 H            1    LIG   0.0000
  29 H            0.1933     1.5165     0.7129 H            1    LIG   0.0000
  30 H            1.5165     0.7129     0.1933 H            1    LIG   0.0000
  31 H            7.4148     3.5844     3.6219 H            1    LIG   0.0000
  32 H            9.3121     2.3642     2.8136 H            1    LIG   0.0000
  33 H            8.9932     0.3801     1.5217 H            1    LIG   0.0000
  34 H            6.7879    -0.3949     1.0307 H            1    LIG   0.0000
  35 H            4.8850     0.8209     1.8337 H            1    LIG   0.0000
  36 H            5.9969     4.2494     4.4915 H            1    LIG   0.0000
  37 H            5.1753     5.9406     5.8560 H            1    LIG   0.0000
  38 H            3.8681     6.7389     5.2899 H            1    LIG   0.0000
  39 H            3.7053     5.6700     6.5137 H            1    LIG   0.0000
  40 H            0.0910     4.7583     1.3825 H            1    LIG   0.0000
  41 H           -2.1761     5.4596     1.7144 H            1    LIG   0.0000
  42 H           -3.4983     4.4516     3.4300 H            1    LIG   0.0000
  43 H           -2.5696     2.7447     4.8187 H            1    LIG   0.0000
  44 H           -0.3023     2.0390     4.4946 H            1    LIG   0.0000
@<TRIPOS>BOND
   1        1        2 1
   2        2        3 1
   3        3        4 1
   4        4        5 2
   5        5        6 1
   6        6        7 1
   7        7        8 1
   8        8        9 ar
   9        9       10 ar
  10       10       11 ar
  11       11       12 ar
  12       12       13 ar
  13       13        8 ar
  14        7       14 2
  15       14       15 1
  16       15       16 1
  17       15       17 2
  18       17       18 1
  19       18        6 1
  20       18       19 2
  21       19        4 1
  22       19       20 1
  23       20       21 ar
  24       21       22 ar
  25       22       23 ar
  26       23       24 ar
  27       24       25 ar
  28       25       20 ar
  29        1       26 1
  30        1       27 1
  31        1       28 1
  32        3       29 1
  33        3       30 1
  34        9       31 1
  35       10       32 1
  36       11       33 1
  37       12       34 1
  38       13       35 1
  39       14       36 1
  40       16       37 1
  41       16       38 1
  42       16       39 1
  43       21       40 1
  44       22       41 1
  45       23       42 1
  46       24       43 1
  47       25       44 1

@<TRIPOS>MOLECULE

  44   47
SMALL
USER_CHARGES
@<TRIPOS>ATOM
   1 C1           1.6682    -0.9521     2.1898 C.3          1    LIG   0.0000
   2 O2           0.5923    -0.1456     1.7334 O.3          1    LIG   0.0000
   3 C3           1.0000     1.0000     1.0000 C.3          1    LIG   0.0000
   4 C4           1.8778     1.8778     1.8778 C.2          1    LIG   0.0000
   5 N5           3.1822     1.8013     1.9910 N.2          1    LIG   0.0000
   6 N6           3.5965     2.7190     2.8400 N.pl3        1    LIG   0.0000
   7 C7           4.8533     3.0284     3.2741 C.2          1    LIG   0.0000
   8 C8           6.0063     2.2945     2.7890 C.ar         1    LIG   0.0000
   9 C9           5.8625     1.4136     1.7222 C.ar         1    LIG   0.0000
  10 C10          6.9735     0.7134     1.2639 C.ar         1    LIG   0.0000
  11 C11          8.2120     0.8979     1.8711 C.ar         1    LIG   0.0000
  12 C12          8.3467     1.7812     2.9372 C.ar         1    LIG   0.0000
  13 C13          7.2403     2.4850     3.4023 C.ar         1    LIG   0.0000
  14 C14          5.0722     4.0326     4.1786 C.2          1    LIG   0.0000
  15 C15          3.9509     4.7579     4.6602 C.2          1    LIG   0.0000
  16 C16          4.1959     5.8723     5.6661 C.3          1    LIG   0.0000
  17 N17          2.7450     4.4382     4.2206 N.2          1    LIG   0.0000
  18 C18          2.5494     3.4310     3.3136 C.2          1    LIG   0.0000
  19 C19          1.4373     2.9164     2.7190 C.2          1    LIG   0.0000
  20 C20          0.0656     3.3453     2.9135 C.ar         1    LIG   0.0000
  21 C21         -0.4665     4.3397     2.0993 C.ar         1    LIG   0.0000
  22 C22         -1.7827     4.7454     2.2934 C.ar         1    LIG   0.0000
  23 C23         -2.5523     4.1579     3.2929 C.ar         1    LIG   0.0000
  24 C24         -2.0120     3.1638     4.1022 C.ar         1    LIG   0.0000
  25 C25         -0.6961     2.7527     3.9153 C.ar         1    LIG   0.0000
  26 H            1.3064    -1.7356     2.6951 H            1    LIG   0.0000
  27 H            2.1975    -1.2766     1.4059 H            1    LIG   0.0000
  28 H            2.2583    -0.4122     2.7900 H            1    LIG   0.0000
  29 H            0.1933     1.5165     0.7129 H            1    LIG   0.0000
  30 H            1.5165     0.7129     0.1933 H            1    LIG   0.0000
  31 H            4.9701     1.2851     1.2895 H            1    LIG   0.0000
  32 H            6.8822     0.0772     0.4978 H            1    LIG   0.0000
  33 H            9.0089     0.3931     1.5393 H            1    LIG   0.0000
  34 H            9.2391     1.9103     3.3696 H            1    LIG   0.0000
  35 H            7.3312     3.1207     4.1688 H            1    LIG   0.0000
  36 H            5.9969     4.2494     4.4915 H            1    LIG   0.0000
  37 H            5.1753     5.9406     5.8560 H            1    LIG   0.0000
  38 H            3.8681     6.7389     5.2899 H            1    LIG   0.0000
  39 H            3.7053     5.6700     6.5137 H            1    LIG   0.0000
  40 H            0.0910     4.7583     1.3825 H            1    LIG   0.0000
  41 H           -2.1761     5.4596     1.7144 H            1    LIG   0.0000
  42 H           -3.4983     4.4516     3.4300 H            1    LIG   0.0000
  43 H           -2.5696     2.7447     4.8187 H            1    LIG   0.0000
  44 H           -0.3023     2.0390     4.4946 H            1    LIG   0.0000
@<TRIPOS>BOND
   1        1        2 1
   2        2        3 1
   3        3        4 1
   4        4        5 2
   5        5        6 1
   6        6        7 1
   7        7        8 1
   8        8        9 ar
   9        9       10 ar
  10       10       11 ar
  11       11       12 ar
  12       12       13 ar
  13       13        8 ar
  14        7       14 2
  15       14       15 1
  16       15       16 1
  17       15       17 2
  18       17       18 1
  19       18        6 1
  20       18       19 2
  21       19        4 1
  22       19       20 1
  23       20       21 ar
  24       21       22 ar
  25       22       23 ar
  26       23       24 ar
  27       24       25 ar
  28       25       20 ar
  29        1       26 1
  30        1       27 1
  31        1       28 1
  32        3       29 1
  33        3       30 1
  34        9       31 1
  35       10       32 1
  36       11       33 1
  37       12       34 1
  38       13       35 1
  39       14       36 1
  40       16       37 1
  41       16       38 1
  42       16       39 1
  43       21       40 1
  44       22       41 1
  45       23       42 1
  46       24       43 1
  47       25       44 1

@<TRIPOS>MOLECULE

  44   47
SMALL
USER_CHARGES
@<TRIPOS>ATOM
   1 C1           1.6682    -0.9521     2.1898 C.3          1    LIG   0.0000
   2 O2           0.5923    -0.1456     1.7334 O.3          1    LIG   0.0000
   3 C3           1.0000     1.0000     1.0000 C.3          1    LIG   0.0000
   4 C4           1.8778     1.8778     1.8778 C.2          1    LIG   0.0000
   5 N5           2.8484     2.6587     1.4675 N.2          1    LIG   0.0000
   6 N6           3.3847     3.2637     2.5072 N.pl3        1    LIG   0.0000
   7 C7           4.4088     4.1631     2.5839 C.2          1    LIG   0.0000
   8 C8           5.0987     4.6043     1.3869 C.ar         1    LIG   0.0000
   9 C9           4.6392     5.7236     0.7007 C.ar         1    LIG   0.0000
  10 C10          5.3065     6.1392    -0.4467 C.ar         1    LIG   0.0000
  11 C11          6.4210     5.4378    -0.8967 C.ar         1    LIG   0.0000
  12 C12          6.8738     4.3197    -0.2040 C.ar         1    LIG   0.0000
  13 C13          6.2117     3.8968     0.9443 C.ar         1    LIG   0.0000
  14 C14          4.8230     4.6770     3.7834 C.2          1    LIG   0.0000
  15 C15          4.1548     4.2525     4.9617 C.2          1    LIG   0.0000
  16 C16          4.6172     4.8234     6.2936 C.3          1    LIG   0.0000
  17 N17          3.1643     3.3819     4.8575 N.2          1    LIG   0.0000
  18 C18          2.7650     2.8824     3.6466 C.2          1    LIG   0.0000
  19 C19          1.7987     1.9962     3.2778 C.2          1    LIG   0.0000
  20 C20          0.8710     1.3028     4.1506 C.ar         1    LIG   0.0000
  21 C21         -0.3889     0.9524     3.6766 C.ar         1    LIG   0.0000
  22 C22         -1.2726     0.2882     4.5208 C.ar         1    LIG   0.0000
  23 C23         -0.8929    -0.0190     5.8238 C.ar         1    LIG   0.0000
  24 C24          0.3692     0.3350     6.2894 C.ar         1    LIG   0.0000
  25 C25          1.2590     1.0001     5.4517 C.ar         1    LIG   0.0000
  26 H            1.3064    -1.7356     2.6951 H            1    LIG   0.0000
  27 H            2.1975    -1.2766     1.4059 H            1    LIG   0.0000
  28 H            2.2583    -0.4122     2.7900 H            1    LIG   0.0000
  29 H            0.1933     1.5165     0.7129 H            1    LIG   0.0000
  30 H            1.5165     0.7129     0.1933 H            1    LIG   0.0000
  31 H            3.8379     6.2239     1.0287 H            1    LIG   0.0000
  32 H            4.9852     6.9423    -0.9485 H            1    LIG   0.0000
  33 H            6.8987     5.7390    -1.7219 H            1    LIG   0.0000
  34 H            7.6754     3.8196    -0.5315 H            1    LIG   0.0000
  35 H            6.5323     3.0933     1.4458 H            1    LIG   0.0000
  36 H            5.5758     5.3337     3.8283 H            1    LIG   0.0000
  37 H            5.3740     5.4586     6.1393 H            1    LIG   0.0000
  38 H            3.8590     5.3080     6.7298 H            1    LIG   0.0000
  39 H            4.9227     4.0790     6.8874 H            1    LIG   0.0000
  40 H           -0.6564     1.1755     2.7392 H            1    LIG   0.0000
  41 H           -2.1811     0.0314     4.1912 H            1    LIG   0.0000
  42 H           -1.5304    -0.4966     6.4284 H            1    LIG   0.0000
  43 H            0.6372     0.1114     7.2265 H            1    LIG   0.0000
  44 H            2.1673     1.2577     5.7813 H            1    LIG   0.0000
@<TRIPOS>BOND
   1        1        2 1
   2        2        3 1
   3        3        4 1
   4        4        5 2
   5        5        6 1
   6        6        7 1
   7        7        8 1
   8        8        9 ar
   9        9       10 ar
  10       10       11 ar
  11       11       12 ar
  12       12       13 ar
  13       13        8 ar
  14        7       14 2
  15       14       15 1
  16       15       16 1
  17       15       17 2
  18       17       18 1
  19       18        6 1
  20       18       19 2
  21       19        4 1
  22       19       20 1
  23       20       21 ar
  24       21       22 ar
  25       22       23 ar
  26       23       24 ar
  27       24       25 ar
  28       25       20 ar
  29        1       26 1
  30        1       27 1
  31        1       28 1
  32        3       29 1
  33        3       30 1
  34        9       31 1
  35       10       32 1
  36       11       33 1
  37       12       34 1
  38       13       35 1
  39       14       36 1
  40       16       37 1
  41       16       38 1
  42       16       39 1
  43       21       40 1
  44       22       41 1
  45       23       42 1
  46       24       43 1
  47       25       44 1

@<TRIPOS>MOLECULE

  44   47
SMALL
USER_CHARGES
@<TRIPOS>ATOM
   1 C1           1.6682    -0.9521     2.1898 C.3          1    LIG   0.0000
   2 O2           0.5923    -0.1456     1.7334 O.3          1    LIG   0.0000
   3 C3           1.0000     1.0000     1.0000 C.3          1    LIG   0.0000
   4 C4           1.8778     1.8778     1.8778 C.2          1    LIG   0.0000
   5 N5           2.8484     2.6587     1.4675 N.2          1    LIG   0.0000
   6 N6           3.3847     3.2637     2.5072 N.pl3        1    LIG   0.0000
   7 C7           4.4088     4.1631     2.5839 C.2          1    LIG   0.0000
   8 C8           5.0987     4.6043     1.3869 C.ar         1    LIG   0.0000
   9 C9           5.9937     5.6666     1.4604 C.ar         1    LIG   0.0000
  10 C10          6.6504     6.0835     0.3073 C.ar         1    LIG   0.0000
  11 C11          6.4095     5.4397    -0.9026 C.ar         1    LIG   0.0000
  12 C12          5.5131     4.3779    -0.9667 C.ar         1    LIG   0.0000
  13 C13          4.8515     3.9550     0.1818 C.ar         1    LIG   0.0000
  14 C14          4.8230     4.6770     3.7834 C.2          1    LIG   0.0000
  15 C15          4.1548     4.2525     4.9617 C.2          1    LIG   0.0000
  16 C16          4.6172     4.8234     6.2936 C.3          1    LIG   0.0000
  17 N17          3.1643     3.3819     4.8575 N.2          1    LIG   0.0000
  18 C18          2.7650     2.8824     3.6466 C.2          1    LIG   0.0000
  19 C19          1.7987     1.9962     3.2778 C.2          1    LIG   0.0000
  20 C20          0.8710     1.3028     4.1506 C.ar         1    LIG   0.0000
  21 C21         -0.3889     0.9524     3.6766 C.ar         1    LIG   0.0000
  22 C22         -1.2726     0.2882     4.5208 C.ar         1    LIG   0.0000
  23 C23         -0.8929    -0.0190     5.8238 C.ar         1    LIG   0.0000
  24 C24          0.3692     0.3350     6.2894 C.ar         1    LIG   0.0000
  25 C25          1.2590     1.0001     5.4517 C.ar         1    LIG   0.0000
  26 H            1.3064    -1.7356     2.6951 H            1    LIG   0.0000
  27 H            2.1975    -1.2766     1.4059 H            1    LIG   0.0000
  28 H            2.2583    -0.4122     2.7900 H            1    LIG   0.0000
  29 H            0.1933     1.5165     0.7129 H            1    LIG   0.0000
  30 H            1.5165     0.7129     0.1933 H            1    LIG   0.0000
  31 H            6.1631     6.1255     2.3326 H            1    LIG   0.0000
  32 H            7.2958     6.8463     0.3478 H            1    LIG   0.0000
  33 H            6.8832     5.7417    -1.7299 H            1    LIG   0.0000
  34 H            5.3441     3.9185    -1.8387 H            1    LIG   0.0000
  35 H            4.2055     3.1927     0.1414 H            1    LIG   0.0000
  36 H            5.5758     5.3337     3.8283 H            1    LIG   0.0000
  37 H            5.3740     5.4586     6.1393 H            1    LIG   0.0000
  38 H            3.8590     5.3080     6.7298 H            1    LIG   0.0000
  39 H            4.9227     4.0790     6.8874 H            1    LIG   0.0000
  40 H           -0.6564     1.1755     2.7392 H            1    LIG   0.0000
  41 H           -2.1811     0.0314     4.1912 H            1    LIG   0.0000
  42 H           -1.5304    -0.4966     6.4284 H            1    LIG   0.0000
  43 H            0.6372     0.1114     7.2265 H            1    LIG   0.0000
  44 H            2.1673     1.2577     5.7813 H            1    LIG   0.0000
@<TRIPOS>BOND
   1        1        2 1
   2        2        3 1
   3        3        4 1
   4        4        5 2
   5        5        6 1
   6        6        7 1
   7        7        8 1
   8        8        9 ar
   9        9       10 ar
  10       10       11 ar
  11       11       12 ar
  12       12       13 ar
  13       13        8 ar
  14        7       14 2
  15       14       15 1
  16       15       16 1
  17       15       17 2
  18       17       18 1
  19       18        6 1
  20       18       19 2
  21       19        4 1
  22       19       20 1
  23       20       21 ar
  24       21       22 ar
  25       22       23 ar
  26       23       24 ar
  27       24       25 ar
  28       25       20 ar
  29        1       26 1
  30        1       27 1
  31        1       28 1
  32        3       29 1
  33        3       30 1
  34        9       31 1
  35       10       32 1
  36       11       33 1
  37       12       34 1
  38       13       35 1
  39       14       36 1
  40       16       37 1
  41       16       38 1
  42       16       39 1
  43       21       40 1
  44       22       41 1
  45       23       42 1
  46       24       43 1
  47       25       44 1

@<TRIPOS>MOLECULE

  44   47
SMALL
USER_CHARGES
@<TRIPOS>ATOM
   1 C1           1.6682    -0.9521     2.1898 C.3          1    LIG   0.0000
   2 O2           0.5923    -0.1456     1.7334 O.3          1    LIG   0.0000
   3 C3           1.0000     1.0000     1.0000 C.3          1    LIG   0.0000
   4 C4           1.8778     1.8778     1.8778 C.2          1    LIG   0.0000
   5 N5           2.8484     2.6587     1.4675 N.2          1    LIG   0.0000
   6 N6           3.3847     3.2637     2.5072 N.pl3        1    LIG   0.0000
   7 C7           4.4088     4.1631     2.5839 C.2          1    LIG   0.0000
   8 C8           5.0987     4.6043     1.3869 C.ar         1    LIG   0.0000
   9 C9           4.5853     4.2766     0.1364 C.ar         1    LIG   0.0000
  10 C10          5.2538     4.7033    -1.0063 C.ar         1    LIG   0.0000
  11 C11          6.4227     5.4495    -0.8913 C.ar         1    LIG   0.0000
  12 C12          6.9289     5.7728     0.3634 C.ar         1    LIG   0.0000
  13 C13          6.2667     5.3495     1.5114 C.ar         1    LIG   0.0000
  14 C14          4.8230     4.6770     3.7834 C.2          1    LIG   0.0000
  15 C15          4.1548     4.2525     4.9617 C.2          1    LIG   0.0000
  16 C16          4.6172     4.8234     6.2936 C.3          1    LIG   0.0000
  17 N17          3.1643     3.3819     4.8575 N.2          1    LIG   0.0000
  18 C18          2.7650     2.8824     3.6466 C.2          1    LIG   0.0000
  19 C19          1.7987     1.9962     3.2778 C.2          1    LIG   0.0000
  20 C20          0.8710     1.3028     4.1506 C.ar         1    LIG   0.0000
  21 C21         -0.3889     0.9524     3.6766 C.ar         1    LIG   0.0000
  22 C22         -1.2726     0.2882     4.5208 C.ar         1    LIG   0.0000
  23 C23         -0.8929    -0.0190     5.8238 C.ar         1    LIG   0.0000
  24 C24          0.3692     0.3350     6.2894 C.ar         1    LIG   0.0000
  25 C25          1.2590     1.0001     5.4517 C.ar         1    LIG   0.0000
  26 H            1.3064    -1.7356     2.6951 H            1    LIG   0.0000
  27 H            2.1975    -1.2766     1.4059 H            1    LIG   0.0000
  28 H            2.2583    -0.4122     2.7900 H            1    LIG   0.0000
  29 H            0.1933     1.5165     0.7129 H            1    LIG   0.0000
  30 H            1.5165     0.7129     0.1933 H            1    LIG   0.0000
  31 H            3.7448     3.7403     0.0597 H            1    LIG   0.0000
  32 H            4.8943     4.4736    -1.9107 H            1    LIG   0.0000
  33 H            6.9011     5.7549    -1.7147 H            1    LIG   0.0000
  34 H            7.7690     6.3097     0.4402 H            1    LIG   0.0000
  35 H            6.6264     5.5783     2.4160 H            1    LIG   0.0000
  36 H            5.5758     5.3337     3.8283 H            1    LIG   0.0000
  37 H            5.3740     5.4586     6.1393 H            1    LIG   0.0000
  38 H            3.8590     5.3080     6.7298 H            1    LIG   0.0000
  39 H            4.9227     4.0790     6.8874 H            1    LIG   0.0000
  40 H           -0.6564     1.1755     2.7392 H            1    LIG   0.0000
  41 H           -2.1811     0.0314     4.1912 H            1    LIG   0.0000
  42 H           -1.5304    -0.4966     6.4284 H            1    LIG   0.0000
  43 H            0.6372     0.1114     7.2265 H            1    LIG   0.0000
  44 H            2.1673     1.2577     5.7813 H            1    LIG   0.0000
@<TRIPOS>BOND
   1        1        2 1
   2        2        3 1
   3        3        4 1
   4        4        5 2
   5        5        6 1
   6        6        7 1
   7        7        8 1
   8        8        9 ar
   9        9       10 ar
  10       10       11 ar
  11       11       12 ar
  12       12       13 ar
  13       13        8 ar
  14        7       14 2
  15       14       15 1
  16       15       16 1
  17       15       17 2
  18       17       18 1
  19       18        6 1
  20       18       19 2
  21       19        4 1
  22       19       20 1
  23       20       21 ar
  24       21       22 ar
  25       22       23 ar
  26       23       24 ar
  27       24       25 ar
  28       25       20 ar
  29        1       26 1
  30        1       27 1
  31        1       28 1
  32        3       29 1
  33        3       30 1
  34        9       31 1
  35       10       32 1
  36       11       33 1
  37       12       34 1
  38       13       35 1
  39       14       36 1
  40       16       37 1
  41       16       38 1
  42       16       39 1
  43       21       40 1
  44       22       41 1
  45       23       42 1
  46       24       43 1
  47       25       44 1

@<TRIPOS>MOLECULE

  44   47
SMALL
USER_CHARGES
@<TRIPOS>ATOM
   1 C1           1.6682    -0.9521     2.1898 C.3          1    LIG   0.0000
   2 O2           0.5923    -0.1456     1.7334 O.3          1    LIG   0.0000
   3 C3           1.0000     1.0000     1.0000 C.3          1    LIG   0.0000
   4 C4           1.8778     1.8778     1.8778 C.2          1    LIG   0.0000
   5 N5           2.2153     1.6371     3.1221 N.2          1    LIG   0.0000
   6 N6           2.9820     2.6150     3.5585 N.pl3        1    LIG   0.0000
   7 C7           3.5767     2.8069     4.7723 C.2          1    LIG   0.0000
   8 C8           3.4112     1.8391     5.8396 C.ar         1    LIG   0.0000
   9 C9           2.4099     0.8779     5.7479 C.ar         1    LIG   0.0000
  10 C10          2.2578    -0.0459     6.7766 C.ar         1    LIG   0.0000
  11 C11          3.1022    -0.0026     7.8819 C.ar         1    LIG   0.0000
  12 C12          4.1010     0.9621     7.9651 C.ar         1    LIG   0.0000
  13 C13          4.2595     1.8902     6.9409 C.ar         1    LIG   0.0000
  14 C14          4.3435     3.9119     5.0280 C.2          1    LIG   0.0000
  15 C15          4.5127     4.8658     3.9905 C.2          1    LIG   0.0000
  16 C16          5.3638     6.0936     4.2769 C.3          1    LIG   0.0000
  17 N17          3.9269     4.6532     2.8237 N.2          1    LIG   0.0000
  18 C18          3.1657     3.5392     2.5890 C.2          1    LIG   0.0000
  19 C19          2.4716     3.0975     1.5036 C.2          1    LIG   0.0000
  20 C20          2.3575     3.7523     0.2146 C.ar         1    LIG   0.0000
  21 C21          2.1877     2.9862    -0.9339 C.ar         1    LIG   0.0000
  22 C22          2.0799     3.6225    -2.1660 C.ar         1    LIG   0.0000
  23 C23          2.1418     5.0107    -2.2406 C.ar         1    LIG   0.0000
  24 C24          2.3114     5.7690    -1.0868 C.ar         1    LIG   0.0000
  25 C25          2.4208     5.1404     0.1496 C.ar         1    LIG   0.0000
  26 H            1.3064    -1.7356     2.6951 H            1    LIG   0.0000
  27 H            2.1975    -1.2766     1.4059 H            1    LIG   0.0000
  28 H            2.2583    -0.4122     2.7900 H            1    LIG   0.0000
  29 H            0.1933     1.5165     0.7129 H            1    LIG   0.0000
  30 H            1.5165     0.7129     0.1933 H            1    LIG   0.0000
  31 H            1.8062     0.8512     4.9512 H            1    LIG   0.0000
  32 H            1.5414    -0.7415     6.7218 H            1    LIG   0.0000
  33 H            2.9904    -0.6681     8.6198 H            1    LIG   0.0000
  34 H            4.7052     0.9884     8.7614 H            1    LIG   0.0000
  35 H            4.9753     2.5863     6.9958 H            1    LIG   0.0000
  36 H            4.7728     4.0434     5.9215 H            1    LIG   0.0000
  37 H            5.7061     6.0503     5.2155 H            1    LIG   0.0000
  38 H            6.1355     6.1198     3.6415 H            1    LIG   0.0000
  39 H            4.8093     6.9178     4.1620 H            1    LIG   0.0000
  40 H            2.1437     1.9889    -0.8744 H            1    LIG   0.0000
  41 H            1.9579     3.0822    -2.9986 H            1    LIG   0.0000
  42 H            2.0639     5.4653    -3.1279 H            1    LIG   0.0000
  43 H            2.3548     6.7663    -1.1460 H            1    LIG   0.0000
  44 H            2.5436     5.6805     0.9822 H            1    LIG   0.0000
@<TRIPOS>BOND
   1        1        2 1
   2        2        3 1
   3        3        4 1
   4        4        5 2
   5        5        6 1
   6        6        7 1
   7        7        8 1
   8        8        9 ar
   9        9       10 ar
  10       10       11 ar
  11       11       12 ar
  12       12       13 ar
  13       13        8 ar
  14        7       14 2
  15       14       15 1
  16       15       16 1
  17       15       17 2
  18       17       18 1
  19       18        6 1
  20       18       19 2
  21       19        4 1
  22       19       20 1
  23       20       21 ar
  24       21       22 ar
  25       22       23 ar
  26       23       24 ar
  27       24       25 ar
  28       25       20 ar
  29        1       26 1
  30        1       27 1
  31        1       28 1
  32        3       29 1
  33        3       30 1
  34        9       31 1
  35       10       32 1
  36       11       33 1
  37       12       34 1
  38       13       35 1
  39       14       36 1
  40       16       37 1
  41       16       38 1
  42       16       39 1
  43       21       40 1
  44       22       41 1
  45       23       42 1
  46       24       43 1
  47       25       44 1

