@<TRIPOS>MOLECULE
*****
 44 47 0 0 0
SMALL
USER_CHARGES

@<TRIPOS>ATOM
      1 C1          1.6682   -0.9521    2.1898 C.3     1  LIG1        0.0000
      2 O2          0.5923   -0.1456    1.7334 O.3     1  LIG1        0.0000
      3 C3          1.0000    1.0000    1.0000 C.3     1  LIG1        0.0000
      4 C4          1.8778    1.8778    1.8778 C.2     1  LIG1        0.0000
      5 N5          2.2153    1.6371    3.1221 N.2     1  LIG1        0.0000
      6 N6          2.9820    2.6150    3.5585 N.pl3   1  LIG1        0.0000
      7 C7          3.5767    2.8069    4.7723 C.2     1  LIG1        0.0000
      8 C8          3.4112    1.8391    5.8396 C.ar    1  LIG1        0.0000
      9 C9          2.4099    0.8779    5.7479 C.ar    1  LIG1        0.0000
     10 C10         2.2578   -0.0459    6.7766 C.ar    1  LIG1        0.0000
     11 C11         3.1022   -0.0026    7.8819 C.ar    1  LIG1        0.0000
     12 C12         4.1010    0.9621    7.9651 C.ar    1  LIG1        0.0000
     13 C13         4.2595    1.8902    6.9409 C.ar    1  LIG1        0.0000
     14 C14         4.3435    3.9119    5.0280 C.2     1  LIG1        0.0000
     15 C15         4.5127    4.8658    3.9905 C.2     1  LIG1        0.0000
     16 C16         5.3638    6.0936    4.2769 C.3     1  LIG1        0.0000
     17 N17         3.9269    4.6532    2.8237 N.2     1  LIG1        0.0000
     18 C18         3.1657    3.5392    2.5890 C.2     1  LIG1        0.0000
     19 C19         2.4716    3.0975    1.5036 C.2     1  LIG1        0.0000
     20 C20         2.3575    3.7523    0.2146 C.ar    1  LIG1        0.0000
     21 C21         2.1877    2.9862   -0.9339 C.ar    1  LIG1        0.0000
     22 C22         2.0799    3.6225   -2.1660 C.ar    1  LIG1        0.0000
     23 C23         2.1418    5.0107   -2.2406 C.ar    1  LIG1        0.0000
     24 C24         2.3114    5.7690   -1.0868 C.ar    1  LIG1        0.0000
     25 C25         2.4208    5.1404    0.1496 C.ar    1  LIG1        0.0000
     26 H           1.3064   -1.7356    2.6951 H       1  LIG1        0.0000
     27 H           2.1975   -1.2766    1.4059 H       1  LIG1        0.0000
     28 H           2.2583   -0.4122    2.7900 H       1  LIG1        0.0000
     29 H           0.1933    1.5165    0.7129 H       1  LIG1        0.0000
     30 H           1.5165    0.7129    0.1933 H       1  LIG1        0.0000
     31 H           1.8062    0.8512    4.9512 H       1  LIG1        0.0000
     32 H           1.5414   -0.7415    6.7218 H       1  LIG1        0.0000
     33 H           2.9904   -0.6681    8.6198 H       1  LIG1        0.0000
     34 H           4.7052    0.9884    8.7614 H       1  LIG1        0.0000
     35 H           4.9753    2.5863    6.9958 H       1  LIG1        0.0000
     36 H           4.7728    4.0434    5.9215 H       1  LIG1        0.0000
     37 H           5.7061    6.0503    5.2155 H       1  LIG1        0.0000
     38 H           6.1355    6.1198    3.6415 H       1  LIG1        0.0000
     39 H           4.8093    6.9178    4.1620 H       1  LIG1        0.0000
     40 H           2.1437    1.9889   -0.8744 H       1  LIG1        0.0000
     41 H           1.9579    3.0822   -2.9986 H       1  LIG1        0.0000
     42 H           2.0639    5.4653   -3.1279 H       1  LIG1        0.0000
     43 H           2.3548    6.7663   -1.1460 H       1  LIG1        0.0000
     44 H           2.5436    5.6805    0.9822 H       1  LIG1        0.0000
@<TRIPOS>BOND
     1     1     2    1
     2     2     3    1
     3     3     4    1
     4     4     5    2
     5     5     6    1
     6     6     7    1
     7     7     8    1
     8     8     9   ar
     9     9    10   ar
    10    10    11   ar
    11    11    12   ar
    12    12    13   ar
    13    13     8   ar
    14     7    14    2
    15    14    15    1
    16    15    16    1
    17    15    17    2
    18    17    18    1
    19    18     6    1
    20    18    19    2
    21    19     4    1
    22    19    20    1
    23    20    21   ar
    24    21    22   ar
    25    22    23   ar
    26    23    24   ar
    27    24    25   ar
    28    25    20   ar
    29     1    26    1
    30     1    27    1
    31     1    28    1
    32     3    29    1
    33     3    30    1
    34     9    31    1
    35    10    32    1
    36    11    33    1
    37    12    34    1
    38    13    35    1
    39    14    36    1
    40    16    37    1
    41    16    38    1
    42    16    39    1
    43    21    40    1
    44    22    41    1
    45    23    42    1
    46    24    43    1
    47    25    44    1
