@<TRIPOS>MOLECULE
*****
 44 47 0 0 0
SMALL
USER_CHARGES

@<TRIPOS>ATOM
      1 C1          1.6682   -0.9521    2.1898 C.3     1  LIG1        0.0000
      2 O2          0.5923   -0.1456    1.7334 O.3     1  LIG1        0.0000
      3 C3          1.0000    1.0000    1.0000 C.3     1  LIG1        0.0000
      4 C4          1.8778    1.8778    1.8778 C.2     1  LIG1        0.0000
      5 N5          3.1822    1.8013    1.9910 N.2     1  LIG1        0.0000
      6 N6          3.5965    2.7190    2.8400 N.pl3   1  LIG1        0.0000
      7 C7          4.8533    3.0284    3.2741 C.2     1  LIG1        0.0000
      8 C8          6.0063    2.2945    2.7890 C.ar    1  LIG1        0.0000
      9 C9          7.2867    2.7534    3.0805 C.ar    1  LIG1        0.0000
     10 C10         8.3868    2.0438    2.6106 C.ar    1  LIG1        0.0000
     11 C11         8.2003    0.8882    1.8581 C.ar    1  LIG1        0.0000
     12 C12         6.9162    0.4364    1.5716 C.ar    1  LIG1        0.0000
     13 C13         5.8104    1.1407    2.0372 C.ar    1  LIG1        0.0000
     14 C14         5.0722    4.0326    4.1786 C.2     1  LIG1        0.0000
     15 C15         3.9509    4.7579    4.6602 C.2     1  LIG1        0.0000
     16 C16         4.1959    5.8723    5.6661 C.3     1  LIG1        0.0000
     17 N17         2.7450    4.4382    4.2206 N.2     1  LIG1        0.0000
     18 C18         2.5494    3.4310    3.3136 C.2     1  LIG1        0.0000
     19 C19         1.4373    2.9164    2.7190 C.2     1  LIG1        0.0000
     20 C20         0.0656    3.3453    2.9135 C.ar    1  LIG1        0.0000
     21 C21        -0.4665    4.3397    2.0993 C.ar    1  LIG1        0.0000
     22 C22        -1.7827    4.7454    2.2934 C.ar    1  LIG1        0.0000
     23 C23        -2.5523    4.1579    3.2929 C.ar    1  LIG1        0.0000
     24 C24        -2.0120    3.1638    4.1022 C.ar    1  LIG1        0.0000
     25 C25        -0.6961    2.7527    3.9153 C.ar    1  LIG1        0.0000
     26 H           1.3064   -1.7356    2.6951 H       1  LIG1        0.0000
     27 H           2.1975   -1.2766    1.4059 H       1  LIG1        0.0000
     28 H           2.2583   -0.4122    2.7900 H       1  LIG1        0.0000
     29 H           0.1933    1.5165    0.7129 H       1  LIG1        0.0000
     30 H           1.5165    0.7129    0.1933 H       1  LIG1        0.0000
     31 H           7.4148    3.5844    3.6219 H       1  LIG1        0.0000
     32 H           9.3121    2.3642    2.8136 H       1  LIG1        0.0000
     33 H           8.9932    0.3801    1.5217 H       1  LIG1        0.0000
     34 H           6.7879   -0.3949    1.0307 H       1  LIG1        0.0000
     35 H           4.8850    0.8209    1.8337 H       1  LIG1        0.0000
     36 H           5.9969    4.2494    4.4915 H       1  LIG1        0.0000
     37 H           5.1753    5.9406    5.8560 H       1  LIG1        0.0000
     38 H           3.8681    6.7389    5.2899 H       1  LIG1        0.0000
     39 H           3.7053    5.6700    6.5137 H       1  LIG1        0.0000
     40 H           0.0910    4.7583    1.3825 H       1  LIG1        0.0000
     41 H          -2.1761    5.4596    1.7144 H       1  LIG1        0.0000
     42 H          -3.4983    4.4516    3.4300 H       1  LIG1        0.0000
     43 H          -2.5696    2.7447    4.8187 H       1  LIG1        0.0000
     44 H          -0.3023    2.0390    4.4946 H       1  LIG1        0.0000
@<TRIPOS>BOND
     1     1     2    1
     2     2     3    1
     3     3     4    1
     4     4     5    2
     5     5     6    1
     6     6     7    1
     7     7     8    1
     8     8     9   ar
     9     9    10   ar
    10    10    11   ar
    11    11    12   ar
    12    12    13   ar
    13    13     8   ar
    14     7    14    2
    15    14    15    1
    16    15    16    1
    17    15    17    2
    18    17    18    1
    19    18     6    1
    20    18    19    2
    21    19     4    1
    22    19    20    1
    23    20    21   ar
    24    21    22   ar
    25    22    23   ar
    26    23    24   ar
    27    24    25   ar
    28    25    20   ar
    29     1    26    1
    30     1    27    1
    31     1    28    1
    32     3    29    1
    33     3    30    1
    34     9    31    1
    35    10    32    1
    36    11    33    1
    37    12    34    1
    38    13    35    1
    39    14    36    1
    40    16    37    1
    41    16    38    1
    42    16    39    1
    43    21    40    1
    44    22    41    1
    45    23    42    1
    46    24    43    1
    47    25    44    1
