@<TRIPOS>MOLECULE
*****
 44 47 0 0 0
SMALL
USER_CHARGES

@<TRIPOS>ATOM
      1 C1          1.6682   -0.9521    2.1898 C.3     1  LIG1        0.0000
      2 O2          0.5923   -0.1456    1.7334 O.3     1  LIG1        0.0000
      3 C3          1.0000    1.0000    1.0000 C.3     1  LIG1        0.0000
      4 C4          1.8778    1.8778    1.8778 C.2     1  LIG1        0.0000
      5 N5          2.8484    2.6587    1.4675 N.2     1  LIG1        0.0000
      6 N6          3.3847    3.2637    2.5072 N.pl3   1  LIG1        0.0000
      7 C7          4.4088    4.1631    2.5839 C.2     1  LIG1        0.0000
      8 C8          5.0987    4.6043    1.3869 C.ar    1  LIG1        0.0000
      9 C9          4.5853    4.2766    0.1364 C.ar    1  LIG1        0.0000
     10 C10         5.2538    4.7033   -1.0063 C.ar    1  LIG1        0.0000
     11 C11         6.4227    5.4495   -0.8913 C.ar    1  LIG1        0.0000
     12 C12         6.9289    5.7728    0.3634 C.ar    1  LIG1        0.0000
     13 C13         6.2667    5.3495    1.5114 C.ar    1  LIG1        0.0000
     14 C14         4.8230    4.6770    3.7834 C.2     1  LIG1        0.0000
     15 C15         4.1548    4.2525    4.9617 C.2     1  LIG1        0.0000
     16 C16         4.6172    4.8234    6.2936 C.3     1  LIG1        0.0000
     17 N17         3.1643    3.3819    4.8575 N.2     1  LIG1        0.0000
     18 C18         2.7650    2.8824    3.6466 C.2     1  LIG1        0.0000
     19 C19         1.7987    1.9962    3.2778 C.2     1  LIG1        0.0000
     20 C20         0.8710    1.3028    4.1506 C.ar    1  LIG1        0.0000
     21 C21        -0.3889    0.9524    3.6766 C.ar    1  LIG1        0.0000
     22 C22        -1.2726    0.2882    4.5208 C.ar    1  LIG1        0.0000
     23 C23        -0.8929   -0.0190    5.8238 C.ar    1  LIG1        0.0000
     24 C24         0.3692    0.3350    6.2894 C.ar    1  LIG1        0.0000
     25 C25         1.2590    1.0001    5.4517 C.ar    1  LIG1        0.0000
     26 H           1.3064   -1.7356    2.6951 H       1  LIG1        0.0000
     27 H           2.1975   -1.2766    1.4059 H       1  LIG1        0.0000
     28 H           2.2583   -0.4122    2.7900 H       1  LIG1        0.0000
     29 H           0.1933    1.5165    0.7129 H       1  LIG1        0.0000
     30 H           1.5165    0.7129    0.1933 H       1  LIG1        0.0000
     31 H           3.7448    3.7403    0.0597 H       1  LIG1        0.0000
     32 H           4.8943    4.4736   -1.9107 H       1  LIG1        0.0000
     33 H           6.9011    5.7549   -1.7147 H       1  LIG1        0.0000
     34 H           7.7690    6.3097    0.4402 H       1  LIG1        0.0000
     35 H           6.6264    5.5783    2.4160 H       1  LIG1        0.0000
     36 H           5.5758    5.3337    3.8283 H       1  LIG1        0.0000
     37 H           5.3740    5.4586    6.1393 H       1  LIG1        0.0000
     38 H           3.8590    5.3080    6.7298 H       1  LIG1        0.0000
     39 H           4.9227    4.0790    6.8874 H       1  LIG1        0.0000
     40 H          -0.6564    1.1755    2.7392 H       1  LIG1        0.0000
     41 H          -2.1811    0.0314    4.1912 H       1  LIG1        0.0000
     42 H          -1.5304   -0.4966    6.4284 H       1  LIG1        0.0000
     43 H           0.6372    0.1114    7.2265 H       1  LIG1        0.0000
     44 H           2.1673    1.2577    5.7813 H       1  LIG1        0.0000
@<TRIPOS>BOND
     1     1     2    1
     2     2     3    1
     3     3     4    1
     4     4     5    2
     5     5     6    1
     6     6     7    1
     7     7     8    1
     8     8     9   ar
     9     9    10   ar
    10    10    11   ar
    11    11    12   ar
    12    12    13   ar
    13    13     8   ar
    14     7    14    2
    15    14    15    1
    16    15    16    1
    17    15    17    2
    18    17    18    1
    19    18     6    1
    20    18    19    2
    21    19     4    1
    22    19    20    1
    23    20    21   ar
    24    21    22   ar
    25    22    23   ar
    26    23    24   ar
    27    24    25   ar
    28    25    20   ar
    29     1    26    1
    30     1    27    1
    31     1    28    1
    32     3    29    1
    33     3    30    1
    34     9    31    1
    35    10    32    1
    36    11    33    1
    37    12    34    1
    38    13    35    1
    39    14    36    1
    40    16    37    1
    41    16    38    1
    42    16    39    1
    43    21    40    1
    44    22    41    1
    45    23    42    1
    46    24    43    1
    47    25    44    1
