@<TRIPOS>MOLECULE
*****
 44 47 0 0 0
SMALL
USER_CHARGES

@<TRIPOS>ATOM
      1 C1          1.6682   -0.9521    2.1898 C.3     1  LIG1        0.0000
      2 O2          0.5923   -0.1456    1.7334 O.3     1  LIG1        0.0000
      3 C3          1.0000    1.0000    1.0000 C.3     1  LIG1        0.0000
      4 C4          1.8778    1.8778    1.8778 C.2     1  LIG1        0.0000
      5 N5          1.4675    2.8484    2.6587 N.2     1  LIG1        0.0000
      6 N6          2.5072    3.3847    3.2637 N.pl3   1  LIG1        0.0000
      7 C7          2.5839    4.4088    4.1631 C.2     1  LIG1        0.0000
      8 C8          1.3869    5.0987    4.6043 C.ar    1  LIG1        0.0000
      9 C9          0.1364    4.5853    4.2766 C.ar    1  LIG1        0.0000
     10 C10        -1.0063    5.2538    4.7033 C.ar    1  LIG1        0.0000
     11 C11        -0.8913    6.4227    5.4495 C.ar    1  LIG1        0.0000
     12 C12         0.3634    6.9289    5.7728 C.ar    1  LIG1        0.0000
     13 C13         1.5114    6.2667    5.3495 C.ar    1  LIG1        0.0000
     14 C14         3.7834    4.8230    4.6770 C.2     1  LIG1        0.0000
     15 C15         4.9617    4.1548    4.2525 C.2     1  LIG1        0.0000
     16 C16         6.2936    4.6172    4.8234 C.3     1  LIG1        0.0000
     17 N17         4.8575    3.1643    3.3819 N.2     1  LIG1        0.0000
     18 C18         3.6466    2.7650    2.8824 C.2     1  LIG1        0.0000
     19 C19         3.2778    1.7987    1.9962 C.2     1  LIG1        0.0000
     20 C20         4.1506    0.8710    1.3028 C.ar    1  LIG1        0.0000
     21 C21         4.4482   -0.3580    1.8823 C.ar    1  LIG1        0.0000
     22 C22         5.2868   -1.2414    1.2107 C.ar    1  LIG1        0.0000
     23 C23         5.8179   -0.8923   -0.0273 C.ar    1  LIG1        0.0000
     24 C24         5.5147    0.3389   -0.5995 C.ar    1  LIG1        0.0000
     25 C25         4.6773    1.2285    0.0660 C.ar    1  LIG1        0.0000
     26 H           1.3064   -1.7356    2.6951 H       1  LIG1        0.0000
     27 H           2.1975   -1.2766    1.4059 H       1  LIG1        0.0000
     28 H           2.2583   -0.4122    2.7900 H       1  LIG1        0.0000
     29 H           0.1933    1.5165    0.7129 H       1  LIG1        0.0000
     30 H           1.5165    0.7129    0.1933 H       1  LIG1        0.0000
     31 H           0.0597    3.7448    3.7403 H       1  LIG1        0.0000
     32 H          -1.9107    4.8943    4.4736 H       1  LIG1        0.0000
     33 H          -1.7147    6.9011    5.7549 H       1  LIG1        0.0000
     34 H           0.4402    7.7690    6.3097 H       1  LIG1        0.0000
     35 H           2.4160    6.6264    5.5783 H       1  LIG1        0.0000
     36 H           3.8283    5.5758    5.3337 H       1  LIG1        0.0000
     37 H           6.1393    5.3740    5.4586 H       1  LIG1        0.0000
     38 H           6.7298    3.8590    5.3080 H       1  LIG1        0.0000
     39 H           6.8874    4.9227    4.0790 H       1  LIG1        0.0000
     40 H           4.0635   -0.6038    2.7721 H       1  LIG1        0.0000
     41 H           5.5081   -2.1277    1.6175 H       1  LIG1        0.0000
     42 H           6.4205   -1.5295   -0.5078 H       1  LIG1        0.0000
     43 H           5.8988    0.5845   -1.4895 H       1  LIG1        0.0000
     44 H           4.4565    2.1152   -0.3403 H       1  LIG1        0.0000
@<TRIPOS>BOND
     1     1     2    1
     2     2     3    1
     3     3     4    1
     4     4     5    2
     5     5     6    1
     6     6     7    1
     7     7     8    1
     8     8     9   ar
     9     9    10   ar
    10    10    11   ar
    11    11    12   ar
    12    12    13   ar
    13    13     8   ar
    14     7    14    2
    15    14    15    1
    16    15    16    1
    17    15    17    2
    18    17    18    1
    19    18     6    1
    20    18    19    2
    21    19     4    1
    22    19    20    1
    23    20    21   ar
    24    21    22   ar
    25    22    23   ar
    26    23    24   ar
    27    24    25   ar
    28    25    20   ar
    29     1    26    1
    30     1    27    1
    31     1    28    1
    32     3    29    1
    33     3    30    1
    34     9    31    1
    35    10    32    1
    36    11    33    1
    37    12    34    1
    38    13    35    1
    39    14    36    1
    40    16    37    1
    41    16    38    1
    42    16    39    1
    43    21    40    1
    44    22    41    1
    45    23    42    1
    46    24    43    1
    47    25    44    1
