@<TRIPOS>MOLECULE
*****
 44 47 0 0 0
SMALL
USER_CHARGES

@<TRIPOS>ATOM
      1 C1          1.6682   -0.9521    2.1898 C.3     1  LIG1        0.0000
      2 O2          0.5923   -0.1456    1.7334 O.3     1  LIG1        0.0000
      3 C3          1.0000    1.0000    1.0000 C.3     1  LIG1        0.0000
      4 C4          1.8778    1.8778    1.8778 C.2     1  LIG1        0.0000
      5 N5          1.8013    1.9910    3.1822 N.2     1  LIG1        0.0000
      6 N6          2.7190    2.8400    3.5965 N.pl3   1  LIG1        0.0000
      7 C7          3.0284    3.2741    4.8533 C.2     1  LIG1        0.0000
      8 C8          2.2945    2.7890    6.0063 C.ar    1  LIG1        0.0000
      9 C9          1.4136    1.7222    5.8625 C.ar    1  LIG1        0.0000
     10 C10         0.7134    1.2639    6.9735 C.ar    1  LIG1        0.0000
     11 C11         0.8979    1.8711    8.2120 C.ar    1  LIG1        0.0000
     12 C12         1.7812    2.9372    8.3467 C.ar    1  LIG1        0.0000
     13 C13         2.4850    3.4023    7.2403 C.ar    1  LIG1        0.0000
     14 C14         4.0326    4.1786    5.0722 C.2     1  LIG1        0.0000
     15 C15         4.7579    4.6602    3.9509 C.2     1  LIG1        0.0000
     16 C16         5.8723    5.6661    4.1959 C.3     1  LIG1        0.0000
     17 N17         4.4382    4.2206    2.7450 N.2     1  LIG1        0.0000
     18 C18         3.4310    3.3136    2.5494 C.2     1  LIG1        0.0000
     19 C19         2.9164    2.7190    1.4373 C.2     1  LIG1        0.0000
     20 C20         3.3453    2.9135    0.0656 C.ar    1  LIG1        0.0000
     21 C21         4.6729    3.2308   -0.2019 C.ar    1  LIG1        0.0000
     22 C22         5.0754    3.4163   -1.5203 C.ar    1  LIG1        0.0000
     23 C23         4.1540    3.2838   -2.5548 C.ar    1  LIG1        0.0000
     24 C24         2.8284    2.9660   -2.2780 C.ar    1  LIG1        0.0000
     25 C25         2.4174    2.7794   -0.9620 C.ar    1  LIG1        0.0000
     26 H           1.3064   -1.7356    2.6951 H       1  LIG1        0.0000
     27 H           2.1975   -1.2766    1.4059 H       1  LIG1        0.0000
     28 H           2.2583   -0.4122    2.7900 H       1  LIG1        0.0000
     29 H           0.1933    1.5165    0.7129 H       1  LIG1        0.0000
     30 H           1.5165    0.7129    0.1933 H       1  LIG1        0.0000
     31 H           1.2851    1.2895    4.9701 H       1  LIG1        0.0000
     32 H           0.0772    0.4978    6.8822 H       1  LIG1        0.0000
     33 H           0.3931    1.5393    9.0089 H       1  LIG1        0.0000
     34 H           1.9103    3.3696    9.2391 H       1  LIG1        0.0000
     35 H           3.1207    4.1688    7.3312 H       1  LIG1        0.0000
     36 H           4.2494    4.4915    5.9969 H       1  LIG1        0.0000
     37 H           5.9406    5.8560    5.1753 H       1  LIG1        0.0000
     38 H           6.7389    5.2899    3.8681 H       1  LIG1        0.0000
     39 H           5.6700    6.5137    3.7053 H       1  LIG1        0.0000
     40 H           5.3308    3.3245    0.5454 H       1  LIG1        0.0000
     41 H           6.0271    3.6450   -1.7249 H       1  LIG1        0.0000
     42 H           4.4464    3.4178   -3.5017 H       1  LIG1        0.0000
     43 H           2.1705    2.8716   -3.0252 H       1  LIG1        0.0000
     44 H           1.4655    2.5515   -0.7571 H       1  LIG1        0.0000
@<TRIPOS>BOND
     1     1     2    1
     2     2     3    1
     3     3     4    1
     4     4     5    2
     5     5     6    1
     6     6     7    1
     7     7     8    1
     8     8     9   ar
     9     9    10   ar
    10    10    11   ar
    11    11    12   ar
    12    12    13   ar
    13    13     8   ar
    14     7    14    2
    15    14    15    1
    16    15    16    1
    17    15    17    2
    18    17    18    1
    19    18     6    1
    20    18    19    2
    21    19     4    1
    22    19    20    1
    23    20    21   ar
    24    21    22   ar
    25    22    23   ar
    26    23    24   ar
    27    24    25   ar
    28    25    20   ar
    29     1    26    1
    30     1    27    1
    31     1    28    1
    32     3    29    1
    33     3    30    1
    34     9    31    1
    35    10    32    1
    36    11    33    1
    37    12    34    1
    38    13    35    1
    39    14    36    1
    40    16    37    1
    41    16    38    1
    42    16    39    1
    43    21    40    1
    44    22    41    1
    45    23    42    1
    46    24    43    1
    47    25    44    1
