@<TRIPOS>MOLECULE

  30   31
SMALL
USER_CHARGES
@<TRIPOS>ATOM
   1 N1           6.7599     9.0361    -0.6493 N.1          1    LIG   0.0000
   2 C2           6.1965     8.1583    -0.1891 C.1          1    LIG   0.0000
   3 C3           5.4455     6.9882     0.4244 C.ar         1    LIG   0.0000
   4 C4           5.1776     5.8651    -0.3514 C.ar         1    LIG   0.0000
   5 C5           4.4897     4.7968     0.2144 C.ar         1    LIG   0.0000
   6 C6           4.0773     4.8598     1.5411 C.ar         1    LIG   0.0000
   7 C7           3.3608     3.7424     2.1229 C.ar         1    LIG   0.0000
   8 C8           3.4836     3.4831     3.4842 C.ar         1    LIG   0.0000
   9 C9           2.7917     2.4080     4.0314 C.ar         1    LIG   0.0000
  10 C10          1.9859     1.6000     3.2363 C.ar         1    LIG   0.0000
  11 C11          1.8776     1.8776     1.8776 C.ar         1    LIG   0.0000
  12 C12          1.0000     1.0000     1.0000 C.3          1    LIG   0.0000
  13 C13         -0.4117     1.5627     0.9714 C.3          1    LIG   0.0000
  14 O14         -1.2315     0.7429     0.1516 O.3          1    LIG   0.0000
  15 C15          2.5610     2.9473     1.3091 C.ar         1    LIG   0.0000
  16 C16          4.3504     5.9867     2.3104 C.ar         1    LIG   0.0000
  17 C17          5.0376     7.0594     1.7527 C.ar         1    LIG   0.0000
  18 H            5.4762     5.8263    -1.3050 H            1    LIG   0.0000
  19 H            4.2917     3.9835    -0.3327 H            1    LIG   0.0000
  20 H            4.0610     4.0613     4.0607 H            1    LIG   0.0000
  21 H            2.8745     2.2135     5.0088 H            1    LIG   0.0000
  22 H            1.4906     0.8289     3.6364 H            1    LIG   0.0000
  23 H            0.9812     0.0712     1.3702 H            1    LIG   0.0000
  24 H            1.3702     0.9812     0.0712 H            1    LIG   0.0000
  25 H           -0.7819     1.5815     1.9002 H            1    LIG   0.0000
  26 H           -0.3929     2.4915     0.6012 H            1    LIG   0.0000
  27 H           -2.1603     1.1131     0.1328 H            1    LIG   0.0000
  28 H            2.4786     3.1414     0.3316 H            1    LIG   0.0000
  29 H            4.0525     6.0252     3.2642 H            1    LIG   0.0000
  30 H            5.2362     7.8724     2.3000 H            1    LIG   0.0000
@<TRIPOS>BOND
   1        1        2 3
   2        2        3 1
   3        3        4 ar
   4        4        5 ar
   5        5        6 ar
   6        6        7 1
   7        7        8 ar
   8        8        9 ar
   9        9       10 ar
  10       10       11 ar
  11       11       12 1
  12       12       13 1
  13       13       14 1
  14       11       15 ar
  15       15        7 ar
  16        6       16 ar
  17       16       17 ar
  18       17        3 ar
  19        4       18 1
  20        5       19 1
  21        8       20 1
  22        9       21 1
  23       10       22 1
  24       12       23 1
  25       12       24 1
  26       13       25 1
  27       13       26 1
  28       14       27 1
  29       15       28 1
  30       16       29 1
  31       17       30 1

@<TRIPOS>MOLECULE

  30   31
SMALL
USER_CHARGES
@<TRIPOS>ATOM
   1 N1           6.7653     9.0456    -0.6244 N.1          1    LIG   0.0000
   2 C2           6.2003     8.1663    -0.1692 C.1          1    LIG   0.0000
   3 C3           5.4471     6.9941     0.4377 C.ar         1    LIG   0.0000
   4 C4           5.5699     6.7330     1.7984 C.ar         1    LIG   0.0000
   5 C5           4.8787     5.6589     2.3493 C.ar         1    LIG   0.0000
   6 C6           4.0773     4.8598     1.5411 C.ar         1    LIG   0.0000
   7 C7           3.3608     3.7424     2.1229 C.ar         1    LIG   0.0000
   8 C8           3.4836     3.4831     3.4842 C.ar         1    LIG   0.0000
   9 C9           2.7917     2.4080     4.0314 C.ar         1    LIG   0.0000
  10 C10          1.9859     1.6000     3.2363 C.ar         1    LIG   0.0000
  11 C11          1.8776     1.8776     1.8776 C.ar         1    LIG   0.0000
  12 C12          1.0000     1.0000     1.0000 C.3          1    LIG   0.0000
  13 C13         -0.4117     1.5627     0.9714 C.3          1    LIG   0.0000
  14 O14         -1.2315     0.7429     0.1516 O.3          1    LIG   0.0000
  15 C15          2.5610     2.9473     1.3091 C.ar         1    LIG   0.0000
  16 C16          3.9592     5.1288     0.1809 C.ar         1    LIG   0.0000
  17 C17          4.6466     6.2006    -0.3781 C.ar         1    LIG   0.0000
  18 H            6.1484     7.3109     2.3741 H            1    LIG   0.0000
  19 H            4.9582     5.4612     3.3263 H            1    LIG   0.0000
  20 H            4.0610     4.0613     4.0607 H            1    LIG   0.0000
  21 H            2.8745     2.2135     5.0088 H            1    LIG   0.0000
  22 H            1.4906     0.8289     3.6364 H            1    LIG   0.0000
  23 H            0.9812     0.0712     1.3702 H            1    LIG   0.0000
  24 H            1.3702     0.9812     0.0712 H            1    LIG   0.0000
  25 H           -0.7819     1.5815     1.9002 H            1    LIG   0.0000
  26 H           -0.3929     2.4915     0.6012 H            1    LIG   0.0000
  27 H           -2.1603     1.1131     0.1328 H            1    LIG   0.0000
  28 H            2.4786     3.1414     0.3316 H            1    LIG   0.0000
  29 H            3.3800     4.5514    -0.3945 H            1    LIG   0.0000
  30 H            4.5666     6.3987    -1.3550 H            1    LIG   0.0000
@<TRIPOS>BOND
   1        1        2 3
   2        2        3 1
   3        3        4 ar
   4        4        5 ar
   5        5        6 ar
   6        6        7 1
   7        7        8 ar
   8        8        9 ar
   9        9       10 ar
  10       10       11 ar
  11       11       12 1
  12       12       13 1
  13       13       14 1
  14       11       15 ar
  15       15        7 ar
  16        6       16 ar
  17       16       17 ar
  18       17        3 ar
  19        4       18 1
  20        5       19 1
  21        8       20 1
  22        9       21 1
  23       10       22 1
  24       12       23 1
  25       12       24 1
  26       13       25 1
  27       13       26 1
  28       14       27 1
  29       15       28 1
  30       16       29 1
  31       17       30 1

@<TRIPOS>MOLECULE

  30   31
SMALL
USER_CHARGES
@<TRIPOS>ATOM
   1 N1           6.7491     9.0446    -0.6462 N.1          1    LIG   0.0000
   2 C2           6.1878     8.1651    -0.1869 C.1          1    LIG   0.0000
   3 C3           5.4394     6.9926     0.4254 C.ar         1    LIG   0.0000
   4 C4           4.2272     6.5916    -0.1267 C.ar         1    LIG   0.0000
   5 C5           3.5458     5.5181     0.4373 C.ar         1    LIG   0.0000
   6 C6           4.0773     4.8598     1.5411 C.ar         1    LIG   0.0000
   7 C7           3.3608     3.7424     2.1229 C.ar         1    LIG   0.0000
   8 C8           3.4836     3.4831     3.4842 C.ar         1    LIG   0.0000
   9 C9           2.7917     2.4080     4.0314 C.ar         1    LIG   0.0000
  10 C10          1.9859     1.6000     3.2363 C.ar         1    LIG   0.0000
  11 C11          1.8776     1.8776     1.8776 C.ar         1    LIG   0.0000
  12 C12          1.0000     1.0000     1.0000 C.3          1    LIG   0.0000
  13 C13         -0.4117     1.5627     0.9714 C.3          1    LIG   0.0000
  14 O14         -1.2315     0.7429     0.1516 O.3          1    LIG   0.0000
  15 C15          2.5610     2.9473     1.3091 C.ar         1    LIG   0.0000
  16 C16          5.2911     5.2669     2.0863 C.ar         1    LIG   0.0000
  17 C17          5.9790     6.3391     1.5288 C.ar         1    LIG   0.0000
  18 H            3.8500     7.0695    -0.9200 H            1    LIG   0.0000
  19 H            2.6738     5.2197     0.0492 H            1    LIG   0.0000
  20 H            4.0610     4.0613     4.0607 H            1    LIG   0.0000
  21 H            2.8745     2.2135     5.0088 H            1    LIG   0.0000
  22 H            1.4906     0.8289     3.6364 H            1    LIG   0.0000
  23 H            0.9812     0.0712     1.3702 H            1    LIG   0.0000
  24 H            1.3702     0.9812     0.0712 H            1    LIG   0.0000
  25 H           -0.7819     1.5815     1.9002 H            1    LIG   0.0000
  26 H           -0.3929     2.4915     0.6012 H            1    LIG   0.0000
  27 H           -2.1603     1.1131     0.1328 H            1    LIG   0.0000
  28 H            2.4786     3.1414     0.3316 H            1    LIG   0.0000
  29 H            5.6686     4.7883     2.8791 H            1    LIG   0.0000
  30 H            6.8513     6.6370     1.9165 H            1    LIG   0.0000
@<TRIPOS>BOND
   1        1        2 3
   2        2        3 1
   3        3        4 ar
   4        4        5 ar
   5        5        6 ar
   6        6        7 1
   7        7        8 ar
   8        8        9 ar
   9        9       10 ar
  10       10       11 ar
  11       11       12 1
  12       12       13 1
  13       13       14 1
  14       11       15 ar
  15       15        7 ar
  16        6       16 ar
  17       16       17 ar
  18       17        3 ar
  19        4       18 1
  20        5       19 1
  21        8       20 1
  22        9       21 1
  23       10       22 1
  24       12       23 1
  25       12       24 1
  26       13       25 1
  27       13       26 1
  28       14       27 1
  29       15       28 1
  30       16       29 1
  31       17       30 1

@<TRIPOS>MOLECULE

  30   31
SMALL
USER_CHARGES
@<TRIPOS>ATOM
   1 N1           3.7312    10.6414     0.7721 N.1          1    LIG   0.0000
   2 C2           3.5864     9.5418     1.0358 C.1          1    LIG   0.0000
   3 C3           3.3934     8.0760     1.3874 C.ar         1    LIG   0.0000
   4 C4           2.8614     7.2094     0.4383 C.ar         1    LIG   0.0000
   5 C5           2.6863     5.8686     0.7648 C.ar         1    LIG   0.0000
   6 C6           3.0409     5.4088     2.0285 C.ar         1    LIG   0.0000
   7 C7           2.8550     4.0104     2.3607 C.ar         1    LIG   0.0000
   8 C8           3.4839     3.4831     3.4840 C.ar         1    LIG   0.0000
   9 C9           3.2985     2.1397     3.7928 C.ar         1    LIG   0.0000
  10 C10          2.4969     1.3293     2.9960 C.ar         1    LIG   0.0000
  11 C11          1.8776     1.8776     1.8776 C.ar         1    LIG   0.0000
  12 C12          1.0000     1.0000     1.0000 C.3          1    LIG   0.0000
  13 C13         -0.4117     1.5627     0.9714 C.3          1    LIG   0.0000
  14 O14         -1.0211     1.2492    -0.2723 O.3          1    LIG   0.0000
  15 C15          2.0494     3.2183     1.5497 C.ar         1    LIG   0.0000
  16 C16          3.5735     6.2823     2.9716 C.ar         1    LIG   0.0000
  17 C17          3.7519     7.6243     2.6536 C.ar         1    LIG   0.0000
  18 H            2.6077     7.5464    -0.4684 H            1    LIG   0.0000
  19 H            2.3055     5.2355     0.0909 H            1    LIG   0.0000
  20 H            4.0608     4.0614     4.0608 H            1    LIG   0.0000
  21 H            3.7472     1.7517     4.5979 H            1    LIG   0.0000
  22 H            2.3674     0.3644     3.2242 H            1    LIG   0.0000
  23 H            0.9812     0.0712     1.3702 H            1    LIG   0.0000
  24 H            1.3702     0.9812     0.0712 H            1    LIG   0.0000
  25 H           -0.9459     1.1608     1.7151 H            1    LIG   0.0000
  26 H           -0.3771     2.5557     1.0847 H            1    LIG   0.0000
  27 H           -1.9499     1.6194    -0.2911 H            1    LIG   0.0000
  28 H            1.6012     3.6061     0.7443 H            1    LIG   0.0000
  29 H            3.8280     5.9451     3.8779 H            1    LIG   0.0000
  30 H            4.1335     8.2574     3.3272 H            1    LIG   0.0000
@<TRIPOS>BOND
   1        1        2 3
   2        2        3 1
   3        3        4 ar
   4        4        5 ar
   5        5        6 ar
   6        6        7 1
   7        7        8 ar
   8        8        9 ar
   9        9       10 ar
  10       10       11 ar
  11       11       12 1
  12       12       13 1
  13       13       14 1
  14       11       15 ar
  15       15        7 ar
  16        6       16 ar
  17       16       17 ar
  18       17        3 ar
  19        4       18 1
  20        5       19 1
  21        8       20 1
  22        9       21 1
  23       10       22 1
  24       12       23 1
  25       12       24 1
  26       13       25 1
  27       13       26 1
  28       14       27 1
  29       15       28 1
  30       16       29 1
  31       17       30 1

@<TRIPOS>MOLECULE

  30   31
SMALL
USER_CHARGES
@<TRIPOS>ATOM
   1 N1           3.3379     1.0617    10.7471 N.1          1    LIG   0.0000
   2 C2           3.2473     1.2855     9.6329 C.1          1    LIG   0.0000
   3 C3           3.1266     1.5839     8.1476 C.ar         1    LIG   0.0000
   4 C4           1.9500     1.2624     7.4790 C.ar         1    LIG   0.0000
   5 C5           1.8442     1.5372     6.1195 C.ar         1    LIG   0.0000
   6 C6           2.9082     2.1256     5.4443 C.ar         1    LIG   0.0000
   7 C7           2.7899     2.4083     4.0278 C.ar         1    LIG   0.0000
   8 C8           3.4837     3.4842     3.4831 C.ar         1    LIG   0.0000
   9 C9           3.3624     3.7461     2.1226 C.ar         1    LIG   0.0000
  10 C10          2.5622     2.9482     1.3118 C.ar         1    LIG   0.0000
  11 C11          1.8776     1.8776     1.8776 C.ar         1    LIG   0.0000
  12 C12          1.0000     1.0000     1.0000 C.3          1    LIG   0.0000
  13 C13         -0.4117     1.5627     0.9714 C.3          1    LIG   0.0000
  14 O14         -1.2315     0.7429     0.1516 O.3          1    LIG   0.0000
  15 C15          1.9839     1.5976     3.2358 C.ar         1    LIG   0.0000
  16 C16          4.0812     2.4449     6.1213 C.ar         1    LIG   0.0000
  17 C17          4.1955     2.1737     7.4804 C.ar         1    LIG   0.0000
  18 H            1.1888     0.8387     7.9700 H            1    LIG   0.0000
  19 H            1.0033     1.3115     5.6276 H            1    LIG   0.0000
  20 H            4.0610     4.0607     4.0613 H            1    LIG   0.0000
  21 H            3.8567     4.5177     1.7224 H            1    LIG   0.0000
  22 H            2.4800     3.1418     0.3342 H            1    LIG   0.0000
  23 H            0.9812     0.0712     1.3702 H            1    LIG   0.0000
  24 H            1.3702     0.9812     0.0712 H            1    LIG   0.0000
  25 H           -0.7819     1.5815     1.9002 H            1    LIG   0.0000
  26 H           -0.3929     2.4915     0.6012 H            1    LIG   0.0000
  27 H           -2.1603     1.1131     0.1328 H            1    LIG   0.0000
  28 H            1.4891     0.8263     3.6361 H            1    LIG   0.0000
  29 H            4.8421     2.8694     5.6304 H            1    LIG   0.0000
  30 H            5.0362     2.4000     7.9724 H            1    LIG   0.0000
@<TRIPOS>BOND
   1        1        2 3
   2        2        3 1
   3        3        4 ar
   4        4        5 ar
   5        5        6 ar
   6        6        7 1
   7        7        8 ar
   8        8        9 ar
   9        9       10 ar
  10       10       11 ar
  11       11       12 1
  12       12       13 1
  13       13       14 1
  14       11       15 ar
  15       15        7 ar
  16        6       16 ar
  17       16       17 ar
  18       17        3 ar
  19        4       18 1
  20        5       19 1
  21        8       20 1
  22        9       21 1
  23       10       22 1
  24       12       23 1
  25       12       24 1
  26       13       25 1
  27       13       26 1
  28       14       27 1
  29       15       28 1
  30       16       29 1
  31       17       30 1

@<TRIPOS>MOLECULE

  30   31
SMALL
USER_CHARGES
@<TRIPOS>ATOM
   1 N1           3.3590     1.0787    10.7487 N.1          1    LIG   0.0000
   2 C2           3.2646     1.2986     9.6341 C.1          1    LIG   0.0000
   3 C3           3.1388     1.5918     8.1482 C.ar         1    LIG   0.0000
   4 C4           3.8310     2.6679     7.6025 C.ar         1    LIG   0.0000
   5 C5           3.7125     2.9324     6.2420 C.ar         1    LIG   0.0000
   6 C6           2.9082     2.1256     5.4443 C.ar         1    LIG   0.0000
   7 C7           2.7899     2.4083     4.0278 C.ar         1    LIG   0.0000
   8 C8           3.4837     3.4842     3.4831 C.ar         1    LIG   0.0000
   9 C9           3.3624     3.7461     2.1226 C.ar         1    LIG   0.0000
  10 C10          2.5622     2.9482     1.3118 C.ar         1    LIG   0.0000
  11 C11          1.8776     1.8776     1.8776 C.ar         1    LIG   0.0000
  12 C12          1.0000     1.0000     1.0000 C.3          1    LIG   0.0000
  13 C13         -0.4117     1.5627     0.9714 C.3          1    LIG   0.0000
  14 O14         -1.2315     0.7429     0.1516 O.3          1    LIG   0.0000
  15 C15          1.9839     1.5976     3.2358 C.ar         1    LIG   0.0000
  16 C16          2.2201     1.0505     5.9983 C.ar         1    LIG   0.0000
  17 C17          2.3328     0.7788     7.3575 C.ar         1    LIG   0.0000
  18 H            4.4072     3.2447     8.1815 H            1    LIG   0.0000
  19 H            4.2056     3.7026     5.8375 H            1    LIG   0.0000
  20 H            4.0610     4.0607     4.0613 H            1    LIG   0.0000
  21 H            3.8567     4.5177     1.7224 H            1    LIG   0.0000
  22 H            2.4800     3.1418     0.3342 H            1    LIG   0.0000
  23 H            0.9812     0.0712     1.3702 H            1    LIG   0.0000
  24 H            1.3702     0.9812     0.0712 H            1    LIG   0.0000
  25 H           -0.7819     1.5815     1.9002 H            1    LIG   0.0000
  26 H           -0.3929     2.4915     0.6012 H            1    LIG   0.0000
  27 H           -2.1603     1.1131     0.1328 H            1    LIG   0.0000
  28 H            1.4891     0.8263     3.6361 H            1    LIG   0.0000
  29 H            1.6446     0.4732     5.4191 H            1    LIG   0.0000
  30 H            1.8403     0.0082     7.7618 H            1    LIG   0.0000
@<TRIPOS>BOND
   1        1        2 3
   2        2        3 1
   3        3        4 ar
   4        4        5 ar
   5        5        6 ar
   6        6        7 1
   7        7        8 ar
   8        8        9 ar
   9        9       10 ar
  10       10       11 ar
  11       11       12 1
  12       12       13 1
  13       13       14 1
  14       11       15 ar
  15       15        7 ar
  16        6       16 ar
  17       16       17 ar
  18       17        3 ar
  19        4       18 1
  20        5       19 1
  21        8       20 1
  22        9       21 1
  23       10       22 1
  24       12       23 1
  25       12       24 1
  26       13       25 1
  27       13       26 1
  28       14       27 1
  29       15       28 1
  30       16       29 1
  31       17       30 1

@<TRIPOS>MOLECULE

  30   31
SMALL
USER_CHARGES
@<TRIPOS>ATOM
   1 N1           3.3492     1.0537    10.7445 N.1          1    LIG   0.0000
   2 C2           3.2562     1.2789     9.6309 C.1          1    LIG   0.0000
   3 C3           3.1322     1.5790     8.1462 C.ar         1    LIG   0.0000
   4 C4           2.9008     0.5365     7.2548 C.ar         1    LIG   0.0000
   5 C5           2.7883     0.8161     5.8968 C.ar         1    LIG   0.0000
   6 C6           2.9082     2.1256     5.4443 C.ar         1    LIG   0.0000
   7 C7           2.7899     2.4083     4.0278 C.ar         1    LIG   0.0000
   8 C8           3.4837     3.4842     3.4831 C.ar         1    LIG   0.0000
   9 C9           3.3624     3.7461     2.1226 C.ar         1    LIG   0.0000
  10 C10          2.5622     2.9482     1.3118 C.ar         1    LIG   0.0000
  11 C11          1.8776     1.8776     1.8776 C.ar         1    LIG   0.0000
  12 C12          1.0000     1.0000     1.0000 C.3          1    LIG   0.0000
  13 C13         -0.4117     1.5627     0.9714 C.3          1    LIG   0.0000
  14 O14         -1.2315     0.7429     0.1516 O.3          1    LIG   0.0000
  15 C15          1.9839     1.5976     3.2358 C.ar         1    LIG   0.0000
  16 C16          3.1384     3.1626     6.3432 C.ar         1    LIG   0.0000
  17 C17          3.2523     2.8921     7.7025 C.ar         1    LIG   0.0000
  18 H            2.8164    -0.4031     7.5864 H            1    LIG   0.0000
  19 H            2.6213     0.0755     5.2460 H            1    LIG   0.0000
  20 H            4.0610     4.0607     4.0613 H            1    LIG   0.0000
  21 H            3.8567     4.5177     1.7224 H            1    LIG   0.0000
  22 H            2.4800     3.1418     0.3342 H            1    LIG   0.0000
  23 H            0.9812     0.0712     1.3702 H            1    LIG   0.0000
  24 H            1.3702     0.9812     0.0712 H            1    LIG   0.0000
  25 H           -0.7819     1.5815     1.9002 H            1    LIG   0.0000
  26 H           -0.3929     2.4915     0.6012 H            1    LIG   0.0000
  27 H           -2.1603     1.1131     0.1328 H            1    LIG   0.0000
  28 H            1.4891     0.8263     3.6361 H            1    LIG   0.0000
  29 H            3.2221     4.1024     6.0116 H            1    LIG   0.0000
  30 H            3.4186     3.6328     8.3534 H            1    LIG   0.0000
@<TRIPOS>BOND
   1        1        2 3
   2        2        3 1
   3        3        4 ar
   4        4        5 ar
   5        5        6 ar
   6        6        7 1
   7        7        8 ar
   8        8        9 ar
   9        9       10 ar
  10       10       11 ar
  11       11       12 1
  12       12       13 1
  13       13       14 1
  14       11       15 ar
  15       15        7 ar
  16        6       16 ar
  17       16       17 ar
  18       17        3 ar
  19        4       18 1
  20        5       19 1
  21        8       20 1
  22        9       21 1
  23       10       22 1
  24       12       23 1
  25       12       24 1
  26       13       25 1
  27       13       26 1
  28       14       27 1
  29       15       28 1
  30       16       29 1
  31       17       30 1

@<TRIPOS>MOLECULE

  30   31
SMALL
USER_CHARGES
@<TRIPOS>ATOM
   1 N1           0.7712     3.7384    10.6403 N.1          1    LIG   0.0000
   2 C2           1.0353     3.5922     9.5410 C.1          1    LIG   0.0000
   3 C3           1.3874     3.3973     8.0754 C.ar         1    LIG   0.0000
   4 C4           0.3854     3.4819     7.1143 C.ar         1    LIG   0.0000
   5 C5           0.7124     3.3026     5.7742 C.ar         1    LIG   0.0000
   6 C6           2.0285     3.0409     5.4088 C.ar         1    LIG   0.0000
   7 C7           2.3607     2.8550     4.0104 C.ar         1    LIG   0.0000
   8 C8           3.4840     3.4839     3.4831 C.ar         1    LIG   0.0000
   9 C9           3.7928     3.2985     2.1397 C.ar         1    LIG   0.0000
  10 C10          2.9960     2.4969     1.3293 C.ar         1    LIG   0.0000
  11 C11          1.8776     1.8776     1.8776 C.ar         1    LIG   0.0000
  12 C12          1.0000     1.0000     1.0000 C.3          1    LIG   0.0000
  13 C13         -0.4117     1.5627     0.9714 C.3          1    LIG   0.0000
  14 O14         -1.3401     0.5032     0.7927 O.3          1    LIG   0.0000
  15 C15          1.5497     2.0494     3.2183 C.ar         1    LIG   0.0000
  16 C16          3.0248     2.9590     6.3767 C.ar         1    LIG   0.0000
  17 C17          2.7067     3.1370     7.7187 C.ar         1    LIG   0.0000
  18 H           -0.5592     3.6696     7.3836 H            1    LIG   0.0000
  19 H            0.0012     3.3617     5.0737 H            1    LIG   0.0000
  20 H            4.0608     4.0608     4.0614 H            1    LIG   0.0000
  21 H            4.5979     3.7472     1.7517 H            1    LIG   0.0000
  22 H            3.2242     2.3674     0.3644 H            1    LIG   0.0000
  23 H            0.9812     0.0712     1.3702 H            1    LIG   0.0000
  24 H            1.3702     0.9812     0.0712 H            1    LIG   0.0000
  25 H           -0.6017     2.0303     1.8347 H            1    LIG   0.0000
  26 H           -0.4967     2.2115     0.2152 H            1    LIG   0.0000
  27 H           -2.2688     0.8734     0.7739 H            1    LIG   0.0000
  28 H            0.7443     1.6012     3.6061 H            1    LIG   0.0000
  29 H            3.9695     2.7722     6.1072 H            1    LIG   0.0000
  30 H            3.4180     3.0786     8.4192 H            1    LIG   0.0000
@<TRIPOS>BOND
   1        1        2 3
   2        2        3 1
   3        3        4 ar
   4        4        5 ar
   5        5        6 ar
   6        6        7 1
   7        7        8 ar
   8        8        9 ar
   9        9       10 ar
  10       10       11 ar
  11       11       12 1
  12       12       13 1
  13       13       14 1
  14       11       15 ar
  15       15        7 ar
  16        6       16 ar
  17       16       17 ar
  18       17        3 ar
  19        4       18 1
  20        5       19 1
  21        8       20 1
  22        9       21 1
  23       10       22 1
  24       12       23 1
  25       12       24 1
  26       13       25 1
  27       13       26 1
  28       14       27 1
  29       15       28 1
  30       16       29 1
  31       17       30 1

@<TRIPOS>MOLECULE

  30   31
SMALL
USER_CHARGES
@<TRIPOS>ATOM
   1 N1           0.7764     3.7256    10.6432 N.1          1    LIG   0.0000
   2 C2           1.0391     3.5818     9.5432 C.1          1    LIG   0.0000
   3 C3           1.3894     3.3902     8.0769 C.ar         1    LIG   0.0000
   4 C4           0.7896     2.3604     7.3594 C.ar         1    LIG   0.0000
   5 C5           1.1136     2.1887     6.0176 C.ar         1    LIG   0.0000
   6 C6           2.0285     3.0409     5.4088 C.ar         1    LIG   0.0000
   7 C7           2.3607     2.8550     4.0104 C.ar         1    LIG   0.0000
   8 C8           3.4840     3.4839     3.4831 C.ar         1    LIG   0.0000
   9 C9           3.7928     3.2985     2.1397 C.ar         1    LIG   0.0000
  10 C10          2.9960     2.4969     1.3293 C.ar         1    LIG   0.0000
  11 C11          1.8776     1.8776     1.8776 C.ar         1    LIG   0.0000
  12 C12          1.0000     1.0000     1.0000 C.3          1    LIG   0.0000
  13 C13         -0.4117     1.5627     0.9714 C.3          1    LIG   0.0000
  14 O14         -1.3401     0.5032     0.7927 O.3          1    LIG   0.0000
  15 C15          1.5497     2.0494     3.2183 C.ar         1    LIG   0.0000
  16 C16          2.6229     4.0693     6.1336 C.ar         1    LIG   0.0000
  17 C17          2.3049     4.2481     7.4755 C.ar         1    LIG   0.0000
  18 H            0.1330     1.7505     7.8032 H            1    LIG   0.0000
  19 H            0.6886     1.4525     5.4908 H            1    LIG   0.0000
  20 H            4.0608     4.0608     4.0614 H            1    LIG   0.0000
  21 H            4.5979     3.7472     1.7517 H            1    LIG   0.0000
  22 H            3.2242     2.3674     0.3644 H            1    LIG   0.0000
  23 H            0.9812     0.0712     1.3702 H            1    LIG   0.0000
  24 H            1.3702     0.9812     0.0712 H            1    LIG   0.0000
  25 H           -0.6017     2.0303     1.8347 H            1    LIG   0.0000
  26 H           -0.4967     2.2115     0.2152 H            1    LIG   0.0000
  27 H           -2.2688     0.8734     0.7739 H            1    LIG   0.0000
  28 H            0.7443     1.6012     3.6061 H            1    LIG   0.0000
  29 H            3.2789     4.6797     5.6896 H            1    LIG   0.0000
  30 H            2.7292     4.9847     8.0021 H            1    LIG   0.0000
@<TRIPOS>BOND
   1        1        2 3
   2        2        3 1
   3        3        4 ar
   4        4        5 ar
   5        5        6 ar
   6        6        7 1
   7        7        8 ar
   8        8        9 ar
   9        9       10 ar
  10       10       11 ar
  11       11       12 1
  12       12       13 1
  13       13       14 1
  14       11       15 ar
  15       15        7 ar
  16        6       16 ar
  17       16       17 ar
  18       17        3 ar
  19        4       18 1
  20        5       19 1
  21        8       20 1
  22        9       21 1
  23       10       22 1
  24       12       23 1
  25       12       24 1
  26       13       25 1
  27       13       26 1
  28       14       27 1
  29       15       28 1
  30       16       29 1
  31       17       30 1

@<TRIPOS>MOLECULE

  30   31
SMALL
USER_CHARGES
@<TRIPOS>ATOM
   1 N1           8.2327    -0.7909     7.7049 N.1          1    LIG   0.0000
   2 C2           7.4659    -0.3112     7.0110 C.1          1    LIG   0.0000
   3 C3           6.4438     0.3284     6.0859 C.ar         1    LIG   0.0000
   4 C4           5.2759    -0.3608     5.7764 C.ar         1    LIG   0.0000
   5 C5           4.3434     0.2285     4.9290 C.ar         1    LIG   0.0000
   6 C6           4.5847     1.4923     4.4011 C.ar         1    LIG   0.0000
   7 C7           3.6082     2.0991     3.5188 C.ar         1    LIG   0.0000
   8 C8           3.4832     3.4842     3.4835 C.ar         1    LIG   0.0000
   9 C9           2.5424     4.0554     2.6332 C.ar         1    LIG   0.0000
  10 C10          1.7355     3.2604     1.8263 C.ar         1    LIG   0.0000
  11 C11          1.8776     1.8776     1.8776 C.ar         1    LIG   0.0000
  12 C12          1.0000     1.0000     1.0000 C.3          1    LIG   0.0000
  13 C13         -0.4117     1.5627     0.9714 C.3          1    LIG   0.0000
  14 O14         -1.0211     1.2492    -0.2723 O.3          1    LIG   0.0000
  15 C15          2.8115     1.2850     2.7208 C.ar         1    LIG   0.0000
  16 C16          5.7553     2.1753     4.7169 C.ar         1    LIG   0.0000
  17 C17          6.6929     1.5935     5.5632 C.ar         1    LIG   0.0000
  18 H            5.1085    -1.2696     6.1586 H            1    LIG   0.0000
  19 H            3.4995    -0.2565     4.6994 H            1    LIG   0.0000
  20 H            4.0613     4.0607     4.0610 H            1    LIG   0.0000
  21 H            2.4450     5.0501     2.6017 H            1    LIG   0.0000
  22 H            1.0616     3.6777     1.2167 H            1    LIG   0.0000
  23 H            0.9812     0.0712     1.3702 H            1    LIG   0.0000
  24 H            1.3702     0.9812     0.0712 H            1    LIG   0.0000
  25 H           -0.9459     1.1608     1.7151 H            1    LIG   0.0000
  26 H           -0.3771     2.5557     1.0847 H            1    LIG   0.0000
  27 H           -1.9499     1.6194    -0.2911 H            1    LIG   0.0000
  28 H            2.9086     0.2902     2.7528 H            1    LIG   0.0000
  29 H            5.9222     3.0844     4.3353 H            1    LIG   0.0000
  30 H            7.5364     2.0788     5.7934 H            1    LIG   0.0000
@<TRIPOS>BOND
   1        1        2 3
   2        2        3 1
   3        3        4 ar
   4        4        5 ar
   5        5        6 ar
   6        6        7 1
   7        7        8 ar
   8        8        9 ar
   9        9       10 ar
  10       10       11 ar
  11       11       12 1
  12       12       13 1
  13       13       14 1
  14       11       15 ar
  15       15        7 ar
  16        6       16 ar
  17       16       17 ar
  18       17        3 ar
  19        4       18 1
  20        5       19 1
  21        8       20 1
  22        9       21 1
  23       10       22 1
  24       12       23 1
  25       12       24 1
  26       13       25 1
  27       13       26 1
  28       14       27 1
  29       15       28 1
  30       16       29 1
  31       17       30 1

@<TRIPOS>MOLECULE

  30   31
SMALL
USER_CHARGES
@<TRIPOS>ATOM
   1 N1           8.2442    -0.7666     7.7089 N.1          1    LIG   0.0000
   2 C2           7.4755    -0.2918     7.0137 C.1          1    LIG   0.0000
   3 C3           6.4508     0.3411     6.0868 C.ar         1    LIG   0.0000
   4 C4           6.3240     1.7259     6.0514 C.ar         1    LIG   0.0000
   5 C5           5.3845     2.3006     5.2017 C.ar         1    LIG   0.0000
   6 C6           4.5847     1.4923     4.4011 C.ar         1    LIG   0.0000
   7 C7           3.6082     2.0991     3.5188 C.ar         1    LIG   0.0000
   8 C8           3.4832     3.4842     3.4835 C.ar         1    LIG   0.0000
   9 C9           2.5424     4.0554     2.6332 C.ar         1    LIG   0.0000
  10 C10          1.7355     3.2604     1.8263 C.ar         1    LIG   0.0000
  11 C11          1.8776     1.8776     1.8776 C.ar         1    LIG   0.0000
  12 C12          1.0000     1.0000     1.0000 C.3          1    LIG   0.0000
  13 C13         -0.4117     1.5627     0.9714 C.3          1    LIG   0.0000
  14 O14         -1.0211     1.2492    -0.2723 O.3          1    LIG   0.0000
  15 C15          2.8115     1.2850     2.7208 C.ar         1    LIG   0.0000
  16 C16          4.7190     0.1079     4.4420 C.ar         1    LIG   0.0000
  17 C17          5.6556    -0.4751     5.2886 C.ar         1    LIG   0.0000
  18 H            6.9016     2.3016     6.6301 H            1    LIG   0.0000
  19 H            5.2843     3.2950     5.1665 H            1    LIG   0.0000
  20 H            4.0613     4.0607     4.0610 H            1    LIG   0.0000
  21 H            2.4450     5.0501     2.6017 H            1    LIG   0.0000
  22 H            1.0616     3.6777     1.2167 H            1    LIG   0.0000
  23 H            0.9812     0.0712     1.3702 H            1    LIG   0.0000
  24 H            1.3702     0.9812     0.0712 H            1    LIG   0.0000
  25 H           -0.9459     1.1608     1.7151 H            1    LIG   0.0000
  26 H           -0.3771     2.5557     1.0847 H            1    LIG   0.0000
  27 H           -1.9499     1.6194    -0.2911 H            1    LIG   0.0000
  28 H            2.9086     0.2902     2.7528 H            1    LIG   0.0000
  29 H            4.1420    -0.4678     3.8627 H            1    LIG   0.0000
  30 H            5.7565    -1.4694     5.3232 H            1    LIG   0.0000
@<TRIPOS>BOND
   1        1        2 3
   2        2        3 1
   3        3        4 ar
   4        4        5 ar
   5        5        6 ar
   6        6        7 1
   7        7        8 ar
   8        8        9 ar
   9        9       10 ar
  10       10       11 ar
  11       11       12 1
  12       12       13 1
  13       13       14 1
  14       11       15 ar
  15       15        7 ar
  16        6       16 ar
  17       16       17 ar
  18       17        3 ar
  19        4       18 1
  20        5       19 1
  21        8       20 1
  22        9       21 1
  23       10       22 1
  24       12       23 1
  25       12       24 1
  26       13       25 1
  27       13       26 1
  28       14       27 1
  29       15       28 1
  30       16       29 1
  31       17       30 1

@<TRIPOS>MOLECULE

  30   31
SMALL
USER_CHARGES
@<TRIPOS>ATOM
   1 N1           8.2425    -0.7898     7.6949 N.1          1    LIG   0.0000
   2 C2           7.4737    -0.3106     7.0028 C.1          1    LIG   0.0000
   3 C3           6.4488     0.3283     6.0803 C.ar         1    LIG   0.0000
   4 C4           6.1091    -0.3077     4.8907 C.ar         1    LIG   0.0000
   5 C5           5.1707     0.2811     4.0494 C.ar         1    LIG   0.0000
   6 C6           4.5847     1.4923     4.4011 C.ar         1    LIG   0.0000
   7 C7           3.6082     2.0991     3.5188 C.ar         1    LIG   0.0000
   8 C8           3.4832     3.4842     3.4835 C.ar         1    LIG   0.0000
   9 C9           2.5424     4.0554     2.6332 C.ar         1    LIG   0.0000
  10 C10          1.7355     3.2604     1.8263 C.ar         1    LIG   0.0000
  11 C11          1.8776     1.8776     1.8776 C.ar         1    LIG   0.0000
  12 C12          1.0000     1.0000     1.0000 C.3          1    LIG   0.0000
  13 C13         -0.4117     1.5627     0.9714 C.3          1    LIG   0.0000
  14 O14         -1.0211     1.2492    -0.2723 O.3          1    LIG   0.0000
  15 C15          2.8115     1.2850     2.7208 C.ar         1    LIG   0.0000
  16 C16          4.9296     2.1211     5.5936 C.ar         1    LIG   0.0000
  17 C17          5.8668     1.5396     6.4405 C.ar         1    LIG   0.0000
  18 H            6.5346    -1.1781     4.6432 H            1    LIG   0.0000
  19 H            4.9175    -0.1666     3.1918 H            1    LIG   0.0000
  20 H            4.0613     4.0607     4.0610 H            1    LIG   0.0000
  21 H            2.4450     5.0501     2.6017 H            1    LIG   0.0000
  22 H            1.0616     3.6777     1.2167 H            1    LIG   0.0000
  23 H            0.9812     0.0712     1.3702 H            1    LIG   0.0000
  24 H            1.3702     0.9812     0.0712 H            1    LIG   0.0000
  25 H           -0.9459     1.1608     1.7151 H            1    LIG   0.0000
  26 H           -0.3771     2.5557     1.0847 H            1    LIG   0.0000
  27 H           -1.9499     1.6194    -0.2911 H            1    LIG   0.0000
  28 H            2.9086     0.2902     2.7528 H            1    LIG   0.0000
  29 H            4.5035     2.9911     5.8415 H            1    LIG   0.0000
  30 H            6.1195     1.9868     7.2985 H            1    LIG   0.0000
@<TRIPOS>BOND
   1        1        2 3
   2        2        3 1
   3        3        4 ar
   4        4        5 ar
   5        5        6 ar
   6        6        7 1
   7        7        8 ar
   8        8        9 ar
   9        9       10 ar
  10       10       11 ar
  11       11       12 1
  12       12       13 1
  13       13       14 1
  14       11       15 ar
  15       15        7 ar
  16        6       16 ar
  17       16       17 ar
  18       17        3 ar
  19        4       18 1
  20        5       19 1
  21        8       20 1
  22        9       21 1
  23       10       22 1
  24       12       23 1
  25       12       24 1
  26       13       25 1
  27       13       26 1
  28       14       27 1
  29       15       28 1
  30       16       29 1
  31       17       30 1

@<TRIPOS>MOLECULE

  30   31
SMALL
USER_CHARGES
@<TRIPOS>ATOM
   1 N1          -0.3094     5.7700     9.7259 N.1          1    LIG   0.0000
   2 C2           0.1024     5.3423     8.7527 C.1          1    LIG   0.0000
   3 C3           0.6513     4.7722     7.4553 C.ar         1    LIG   0.0000
   4 C4           1.9591     5.0619     7.0802 C.ar         1    LIG   0.0000
   5 C5           2.4570     4.5381     5.8917 C.ar         1    LIG   0.0000
   6 C6           1.6492     3.7357     5.0933 C.ar         1    LIG   0.0000
   7 C7           2.1756     3.1941     3.8564 C.ar         1    LIG   0.0000
   8 C8           3.4841     3.4837     3.4831 C.ar         1    LIG   0.0000
   9 C9           3.9785     2.9588     2.2938 C.ar         1    LIG   0.0000
  10 C10          3.1830     2.1544     1.4848 C.ar         1    LIG   0.0000
  11 C11          1.8776     1.8776     1.8776 C.ar         1    LIG   0.0000
  12 C12          1.0000     1.0000     1.0000 C.3          1    LIG   0.0000
  13 C13         -0.4117     1.5627     0.9714 C.3          1    LIG   0.0000
  14 O14         -1.3401     0.5032     0.7927 O.3          1    LIG   0.0000
  15 C15          1.3624     2.3923     3.0625 C.ar         1    LIG   0.0000
  16 C16          0.3424     3.4499     5.4766 C.ar         1    LIG   0.0000
  17 C17         -0.1635     3.9695     6.6631 C.ar         1    LIG   0.0000
  18 H            2.5347     5.6402     7.6584 H            1    LIG   0.0000
  19 H            3.3958     4.7385     5.6115 H            1    LIG   0.0000
  20 H            4.0607     4.0609     4.0613 H            1    LIG   0.0000
  21 H            4.9176     3.1622     2.0170 H            1    LIG   0.0000
  22 H            3.5450     1.7796     0.6313 H            1    LIG   0.0000
  23 H            0.9812     0.0712     1.3702 H            1    LIG   0.0000
  24 H            1.3702     0.9812     0.0712 H            1    LIG   0.0000
  25 H           -0.6017     2.0303     1.8347 H            1    LIG   0.0000
  26 H           -0.4967     2.2115     0.2152 H            1    LIG   0.0000
  27 H           -2.2688     0.8734     0.7739 H            1    LIG   0.0000
  28 H            0.4231     2.1894     3.3391 H            1    LIG   0.0000
  29 H           -0.2329     2.8710     4.8988 H            1    LIG   0.0000
  30 H           -1.1021     3.7685     6.9438 H            1    LIG   0.0000
@<TRIPOS>BOND
   1        1        2 3
   2        2        3 1
   3        3        4 ar
   4        4        5 ar
   5        5        6 ar
   6        6        7 1
   7        7        8 ar
   8        8        9 ar
   9        9       10 ar
  10       10       11 ar
  11       11       12 1
  12       12       13 1
  13       13       14 1
  14       11       15 ar
  15       15        7 ar
  16        6       16 ar
  17       16       17 ar
  18       17        3 ar
  19        4       18 1
  20        5       19 1
  21        8       20 1
  22        9       21 1
  23       10       22 1
  24       12       23 1
  25       12       24 1
  26       13       25 1
  27       13       26 1
  28       14       27 1
  29       15       28 1
  30       16       29 1
  31       17       30 1

