@<TRIPOS>MOLECULE
*****
 30 31 0 0 0
SMALL
USER_CHARGES

@<TRIPOS>ATOM
      1 N1          0.7712    3.7384   10.6403 N.1     1  LIG1        0.0000
      2 C2          1.0353    3.5922    9.5410 C.1     1  LIG1        0.0000
      3 C3          1.3874    3.3973    8.0754 C.ar    1  LIG1        0.0000
      4 C4          0.3854    3.4819    7.1143 C.ar    1  LIG1        0.0000
      5 C5          0.7124    3.3026    5.7742 C.ar    1  LIG1        0.0000
      6 C6          2.0285    3.0409    5.4088 C.ar    1  LIG1        0.0000
      7 C7          2.3607    2.8550    4.0104 C.ar    1  LIG1        0.0000
      8 C8          3.4840    3.4839    3.4831 C.ar    1  LIG1        0.0000
      9 C9          3.7928    3.2985    2.1397 C.ar    1  LIG1        0.0000
     10 C10         2.9960    2.4969    1.3293 C.ar    1  LIG1        0.0000
     11 C11         1.8776    1.8776    1.8776 C.ar    1  LIG1        0.0000
     12 C12         1.0000    1.0000    1.0000 C.3     1  LIG1        0.0000
     13 C13        -0.4117    1.5627    0.9714 C.3     1  LIG1        0.0000
     14 O14        -1.3401    0.5032    0.7927 O.3     1  LIG1        0.0000
     15 C15         1.5497    2.0494    3.2183 C.ar    1  LIG1        0.0000
     16 C16         3.0248    2.9590    6.3767 C.ar    1  LIG1        0.0000
     17 C17         2.7067    3.1370    7.7187 C.ar    1  LIG1        0.0000
     18 H          -0.5592    3.6696    7.3836 H       1  LIG1        0.0000
     19 H           0.0012    3.3617    5.0737 H       1  LIG1        0.0000
     20 H           4.0608    4.0608    4.0614 H       1  LIG1        0.0000
     21 H           4.5979    3.7472    1.7517 H       1  LIG1        0.0000
     22 H           3.2242    2.3674    0.3644 H       1  LIG1        0.0000
     23 H           0.9812    0.0712    1.3702 H       1  LIG1        0.0000
     24 H           1.3702    0.9812    0.0712 H       1  LIG1        0.0000
     25 H          -0.6017    2.0303    1.8347 H       1  LIG1        0.0000
     26 H          -0.4967    2.2115    0.2152 H       1  LIG1        0.0000
     27 H          -2.2688    0.8734    0.7739 H       1  LIG1        0.0000
     28 H           0.7443    1.6012    3.6061 H       1  LIG1        0.0000
     29 H           3.9695    2.7722    6.1072 H       1  LIG1        0.0000
     30 H           3.4180    3.0786    8.4192 H       1  LIG1        0.0000
@<TRIPOS>BOND
     1     1     2    3
     2     2     3    1
     3     3     4   ar
     4     4     5   ar
     5     5     6   ar
     6     6     7    1
     7     7     8   ar
     8     8     9   ar
     9     9    10   ar
    10    10    11   ar
    11    11    12    1
    12    12    13    1
    13    13    14    1
    14    11    15   ar
    15    15     7   ar
    16     6    16   ar
    17    16    17   ar
    18    17     3   ar
    19     4    18    1
    20     5    19    1
    21     8    20    1
    22     9    21    1
    23    10    22    1
    24    12    23    1
    25    12    24    1
    26    13    25    1
    27    13    26    1
    28    14    27    1
    29    15    28    1
    30    16    29    1
    31    17    30    1
