@<TRIPOS>MOLECULE
*****
 30 31 0 0 0
SMALL
USER_CHARGES

@<TRIPOS>ATOM
      1 N1          3.3590    1.0787   10.7487 N.1     1  LIG1        0.0000
      2 C2          3.2646    1.2986    9.6341 C.1     1  LIG1        0.0000
      3 C3          3.1388    1.5918    8.1482 C.ar    1  LIG1        0.0000
      4 C4          3.8310    2.6679    7.6025 C.ar    1  LIG1        0.0000
      5 C5          3.7125    2.9324    6.2420 C.ar    1  LIG1        0.0000
      6 C6          2.9082    2.1256    5.4443 C.ar    1  LIG1        0.0000
      7 C7          2.7899    2.4083    4.0278 C.ar    1  LIG1        0.0000
      8 C8          3.4837    3.4842    3.4831 C.ar    1  LIG1        0.0000
      9 C9          3.3624    3.7461    2.1226 C.ar    1  LIG1        0.0000
     10 C10         2.5622    2.9482    1.3118 C.ar    1  LIG1        0.0000
     11 C11         1.8776    1.8776    1.8776 C.ar    1  LIG1        0.0000
     12 C12         1.0000    1.0000    1.0000 C.3     1  LIG1        0.0000
     13 C13        -0.4117    1.5627    0.9714 C.3     1  LIG1        0.0000
     14 O14        -1.2315    0.7429    0.1516 O.3     1  LIG1        0.0000
     15 C15         1.9839    1.5976    3.2358 C.ar    1  LIG1        0.0000
     16 C16         2.2201    1.0505    5.9983 C.ar    1  LIG1        0.0000
     17 C17         2.3328    0.7788    7.3575 C.ar    1  LIG1        0.0000
     18 H           4.4072    3.2447    8.1815 H       1  LIG1        0.0000
     19 H           4.2056    3.7026    5.8375 H       1  LIG1        0.0000
     20 H           4.0610    4.0607    4.0613 H       1  LIG1        0.0000
     21 H           3.8567    4.5177    1.7224 H       1  LIG1        0.0000
     22 H           2.4800    3.1418    0.3342 H       1  LIG1        0.0000
     23 H           0.9812    0.0712    1.3702 H       1  LIG1        0.0000
     24 H           1.3702    0.9812    0.0712 H       1  LIG1        0.0000
     25 H          -0.7819    1.5815    1.9002 H       1  LIG1        0.0000
     26 H          -0.3929    2.4915    0.6012 H       1  LIG1        0.0000
     27 H          -2.1603    1.1131    0.1328 H       1  LIG1        0.0000
     28 H           1.4891    0.8263    3.6361 H       1  LIG1        0.0000
     29 H           1.6446    0.4732    5.4191 H       1  LIG1        0.0000
     30 H           1.8403    0.0082    7.7618 H       1  LIG1        0.0000
@<TRIPOS>BOND
     1     1     2    3
     2     2     3    1
     3     3     4   ar
     4     4     5   ar
     5     5     6   ar
     6     6     7    1
     7     7     8   ar
     8     8     9   ar
     9     9    10   ar
    10    10    11   ar
    11    11    12    1
    12    12    13    1
    13    13    14    1
    14    11    15   ar
    15    15     7   ar
    16     6    16   ar
    17    16    17   ar
    18    17     3   ar
    19     4    18    1
    20     5    19    1
    21     8    20    1
    22     9    21    1
    23    10    22    1
    24    12    23    1
    25    12    24    1
    26    13    25    1
    27    13    26    1
    28    14    27    1
    29    15    28    1
    30    16    29    1
    31    17    30    1
