@<TRIPOS>MOLECULE
*****
 30 31 0 0 0
SMALL
USER_CHARGES

@<TRIPOS>ATOM
      1 N1         -0.3094    5.7700    9.7259 N.1     1  LIG1        0.0000
      2 C2          0.1024    5.3423    8.7527 C.1     1  LIG1        0.0000
      3 C3          0.6513    4.7722    7.4553 C.ar    1  LIG1        0.0000
      4 C4          1.9591    5.0619    7.0802 C.ar    1  LIG1        0.0000
      5 C5          2.4570    4.5381    5.8917 C.ar    1  LIG1        0.0000
      6 C6          1.6492    3.7357    5.0933 C.ar    1  LIG1        0.0000
      7 C7          2.1756    3.1941    3.8564 C.ar    1  LIG1        0.0000
      8 C8          3.4841    3.4837    3.4831 C.ar    1  LIG1        0.0000
      9 C9          3.9785    2.9588    2.2938 C.ar    1  LIG1        0.0000
     10 C10         3.1830    2.1544    1.4848 C.ar    1  LIG1        0.0000
     11 C11         1.8776    1.8776    1.8776 C.ar    1  LIG1        0.0000
     12 C12         1.0000    1.0000    1.0000 C.3     1  LIG1        0.0000
     13 C13        -0.4117    1.5627    0.9714 C.3     1  LIG1        0.0000
     14 O14        -1.3401    0.5032    0.7927 O.3     1  LIG1        0.0000
     15 C15         1.3624    2.3923    3.0625 C.ar    1  LIG1        0.0000
     16 C16         0.3424    3.4499    5.4766 C.ar    1  LIG1        0.0000
     17 C17        -0.1635    3.9695    6.6631 C.ar    1  LIG1        0.0000
     18 H           2.5347    5.6402    7.6584 H       1  LIG1        0.0000
     19 H           3.3958    4.7385    5.6115 H       1  LIG1        0.0000
     20 H           4.0607    4.0609    4.0613 H       1  LIG1        0.0000
     21 H           4.9176    3.1622    2.0170 H       1  LIG1        0.0000
     22 H           3.5450    1.7796    0.6313 H       1  LIG1        0.0000
     23 H           0.9812    0.0712    1.3702 H       1  LIG1        0.0000
     24 H           1.3702    0.9812    0.0712 H       1  LIG1        0.0000
     25 H          -0.6017    2.0303    1.8347 H       1  LIG1        0.0000
     26 H          -0.4967    2.2115    0.2152 H       1  LIG1        0.0000
     27 H          -2.2688    0.8734    0.7739 H       1  LIG1        0.0000
     28 H           0.4231    2.1894    3.3391 H       1  LIG1        0.0000
     29 H          -0.2329    2.8710    4.8988 H       1  LIG1        0.0000
     30 H          -1.1021    3.7685    6.9438 H       1  LIG1        0.0000
@<TRIPOS>BOND
     1     1     2    3
     2     2     3    1
     3     3     4   ar
     4     4     5   ar
     5     5     6   ar
     6     6     7    1
     7     7     8   ar
     8     8     9   ar
     9     9    10   ar
    10    10    11   ar
    11    11    12    1
    12    12    13    1
    13    13    14    1
    14    11    15   ar
    15    15     7   ar
    16     6    16   ar
    17    16    17   ar
    18    17     3   ar
    19     4    18    1
    20     5    19    1
    21     8    20    1
    22     9    21    1
    23    10    22    1
    24    12    23    1
    25    12    24    1
    26    13    25    1
    27    13    26    1
    28    14    27    1
    29    15    28    1
    30    16    29    1
    31    17    30    1
