@<TRIPOS>MOLECULE
*****
 30 31 0 0 0
SMALL
USER_CHARGES

@<TRIPOS>ATOM
      1 N1          8.2425   -0.7898    7.6949 N.1     1  LIG1        0.0000
      2 C2          7.4737   -0.3106    7.0028 C.1     1  LIG1        0.0000
      3 C3          6.4488    0.3283    6.0803 C.ar    1  LIG1        0.0000
      4 C4          6.1091   -0.3077    4.8907 C.ar    1  LIG1        0.0000
      5 C5          5.1707    0.2811    4.0494 C.ar    1  LIG1        0.0000
      6 C6          4.5847    1.4923    4.4011 C.ar    1  LIG1        0.0000
      7 C7          3.6082    2.0991    3.5188 C.ar    1  LIG1        0.0000
      8 C8          3.4832    3.4842    3.4835 C.ar    1  LIG1        0.0000
      9 C9          2.5424    4.0554    2.6332 C.ar    1  LIG1        0.0000
     10 C10         1.7355    3.2604    1.8263 C.ar    1  LIG1        0.0000
     11 C11         1.8776    1.8776    1.8776 C.ar    1  LIG1        0.0000
     12 C12         1.0000    1.0000    1.0000 C.3     1  LIG1        0.0000
     13 C13        -0.4117    1.5627    0.9714 C.3     1  LIG1        0.0000
     14 O14        -1.0211    1.2492   -0.2723 O.3     1  LIG1        0.0000
     15 C15         2.8115    1.2850    2.7208 C.ar    1  LIG1        0.0000
     16 C16         4.9296    2.1211    5.5936 C.ar    1  LIG1        0.0000
     17 C17         5.8668    1.5396    6.4405 C.ar    1  LIG1        0.0000
     18 H           6.5346   -1.1781    4.6432 H       1  LIG1        0.0000
     19 H           4.9175   -0.1666    3.1918 H       1  LIG1        0.0000
     20 H           4.0613    4.0607    4.0610 H       1  LIG1        0.0000
     21 H           2.4450    5.0501    2.6017 H       1  LIG1        0.0000
     22 H           1.0616    3.6777    1.2167 H       1  LIG1        0.0000
     23 H           0.9812    0.0712    1.3702 H       1  LIG1        0.0000
     24 H           1.3702    0.9812    0.0712 H       1  LIG1        0.0000
     25 H          -0.9459    1.1608    1.7151 H       1  LIG1        0.0000
     26 H          -0.3771    2.5557    1.0847 H       1  LIG1        0.0000
     27 H          -1.9499    1.6194   -0.2911 H       1  LIG1        0.0000
     28 H           2.9086    0.2902    2.7528 H       1  LIG1        0.0000
     29 H           4.5035    2.9911    5.8415 H       1  LIG1        0.0000
     30 H           6.1195    1.9868    7.2985 H       1  LIG1        0.0000
@<TRIPOS>BOND
     1     1     2    3
     2     2     3    1
     3     3     4   ar
     4     4     5   ar
     5     5     6   ar
     6     6     7    1
     7     7     8   ar
     8     8     9   ar
     9     9    10   ar
    10    10    11   ar
    11    11    12    1
    12    12    13    1
    13    13    14    1
    14    11    15   ar
    15    15     7   ar
    16     6    16   ar
    17    16    17   ar
    18    17     3   ar
    19     4    18    1
    20     5    19    1
    21     8    20    1
    22     9    21    1
    23    10    22    1
    24    12    23    1
    25    12    24    1
    26    13    25    1
    27    13    26    1
    28    14    27    1
    29    15    28    1
    30    16    29    1
    31    17    30    1
