@<TRIPOS>MOLECULE
*****
 30 31 0 0 0
SMALL
USER_CHARGES

@<TRIPOS>ATOM
      1 N1          6.7491    9.0446   -0.6462 N.1     1  LIG1        0.0000
      2 C2          6.1878    8.1651   -0.1869 C.1     1  LIG1        0.0000
      3 C3          5.4394    6.9926    0.4254 C.ar    1  LIG1        0.0000
      4 C4          4.2272    6.5916   -0.1267 C.ar    1  LIG1        0.0000
      5 C5          3.5458    5.5181    0.4373 C.ar    1  LIG1        0.0000
      6 C6          4.0773    4.8598    1.5411 C.ar    1  LIG1        0.0000
      7 C7          3.3608    3.7424    2.1229 C.ar    1  LIG1        0.0000
      8 C8          3.4836    3.4831    3.4842 C.ar    1  LIG1        0.0000
      9 C9          2.7917    2.4080    4.0314 C.ar    1  LIG1        0.0000
     10 C10         1.9859    1.6000    3.2363 C.ar    1  LIG1        0.0000
     11 C11         1.8776    1.8776    1.8776 C.ar    1  LIG1        0.0000
     12 C12         1.0000    1.0000    1.0000 C.3     1  LIG1        0.0000
     13 C13        -0.4117    1.5627    0.9714 C.3     1  LIG1        0.0000
     14 O14        -1.2315    0.7429    0.1516 O.3     1  LIG1        0.0000
     15 C15         2.5610    2.9473    1.3091 C.ar    1  LIG1        0.0000
     16 C16         5.2911    5.2669    2.0863 C.ar    1  LIG1        0.0000
     17 C17         5.9790    6.3391    1.5288 C.ar    1  LIG1        0.0000
     18 H           3.8500    7.0695   -0.9200 H       1  LIG1        0.0000
     19 H           2.6738    5.2197    0.0492 H       1  LIG1        0.0000
     20 H           4.0610    4.0613    4.0607 H       1  LIG1        0.0000
     21 H           2.8745    2.2135    5.0088 H       1  LIG1        0.0000
     22 H           1.4906    0.8289    3.6364 H       1  LIG1        0.0000
     23 H           0.9812    0.0712    1.3702 H       1  LIG1        0.0000
     24 H           1.3702    0.9812    0.0712 H       1  LIG1        0.0000
     25 H          -0.7819    1.5815    1.9002 H       1  LIG1        0.0000
     26 H          -0.3929    2.4915    0.6012 H       1  LIG1        0.0000
     27 H          -2.1603    1.1131    0.1328 H       1  LIG1        0.0000
     28 H           2.4786    3.1414    0.3316 H       1  LIG1        0.0000
     29 H           5.6686    4.7883    2.8791 H       1  LIG1        0.0000
     30 H           6.8513    6.6370    1.9165 H       1  LIG1        0.0000
@<TRIPOS>BOND
     1     1     2    3
     2     2     3    1
     3     3     4   ar
     4     4     5   ar
     5     5     6   ar
     6     6     7    1
     7     7     8   ar
     8     8     9   ar
     9     9    10   ar
    10    10    11   ar
    11    11    12    1
    12    12    13    1
    13    13    14    1
    14    11    15   ar
    15    15     7   ar
    16     6    16   ar
    17    16    17   ar
    18    17     3   ar
    19     4    18    1
    20     5    19    1
    21     8    20    1
    22     9    21    1
    23    10    22    1
    24    12    23    1
    25    12    24    1
    26    13    25    1
    27    13    26    1
    28    14    27    1
    29    15    28    1
    30    16    29    1
    31    17    30    1
