@<TRIPOS>MOLECULE
*****
 30 31 0 0 0
SMALL
USER_CHARGES

@<TRIPOS>ATOM
      1 N1          3.7312   10.6414    0.7721 N.1     1  LIG1        0.0000
      2 C2          3.5864    9.5418    1.0358 C.1     1  LIG1        0.0000
      3 C3          3.3934    8.0760    1.3874 C.ar    1  LIG1        0.0000
      4 C4          2.8614    7.2094    0.4383 C.ar    1  LIG1        0.0000
      5 C5          2.6863    5.8686    0.7648 C.ar    1  LIG1        0.0000
      6 C6          3.0409    5.4088    2.0285 C.ar    1  LIG1        0.0000
      7 C7          2.8550    4.0104    2.3607 C.ar    1  LIG1        0.0000
      8 C8          3.4839    3.4831    3.4840 C.ar    1  LIG1        0.0000
      9 C9          3.2985    2.1397    3.7928 C.ar    1  LIG1        0.0000
     10 C10         2.4969    1.3293    2.9960 C.ar    1  LIG1        0.0000
     11 C11         1.8776    1.8776    1.8776 C.ar    1  LIG1        0.0000
     12 C12         1.0000    1.0000    1.0000 C.3     1  LIG1        0.0000
     13 C13        -0.4117    1.5627    0.9714 C.3     1  LIG1        0.0000
     14 O14        -1.0211    1.2492   -0.2723 O.3     1  LIG1        0.0000
     15 C15         2.0494    3.2183    1.5497 C.ar    1  LIG1        0.0000
     16 C16         3.5735    6.2823    2.9716 C.ar    1  LIG1        0.0000
     17 C17         3.7519    7.6243    2.6536 C.ar    1  LIG1        0.0000
     18 H           2.6077    7.5464   -0.4684 H       1  LIG1        0.0000
     19 H           2.3055    5.2355    0.0909 H       1  LIG1        0.0000
     20 H           4.0608    4.0614    4.0608 H       1  LIG1        0.0000
     21 H           3.7472    1.7517    4.5979 H       1  LIG1        0.0000
     22 H           2.3674    0.3644    3.2242 H       1  LIG1        0.0000
     23 H           0.9812    0.0712    1.3702 H       1  LIG1        0.0000
     24 H           1.3702    0.9812    0.0712 H       1  LIG1        0.0000
     25 H          -0.9459    1.1608    1.7151 H       1  LIG1        0.0000
     26 H          -0.3771    2.5557    1.0847 H       1  LIG1        0.0000
     27 H          -1.9499    1.6194   -0.2911 H       1  LIG1        0.0000
     28 H           1.6012    3.6061    0.7443 H       1  LIG1        0.0000
     29 H           3.8280    5.9451    3.8779 H       1  LIG1        0.0000
     30 H           4.1335    8.2574    3.3272 H       1  LIG1        0.0000
@<TRIPOS>BOND
     1     1     2    3
     2     2     3    1
     3     3     4   ar
     4     4     5   ar
     5     5     6   ar
     6     6     7    1
     7     7     8   ar
     8     8     9   ar
     9     9    10   ar
    10    10    11   ar
    11    11    12    1
    12    12    13    1
    13    13    14    1
    14    11    15   ar
    15    15     7   ar
    16     6    16   ar
    17    16    17   ar
    18    17     3   ar
    19     4    18    1
    20     5    19    1
    21     8    20    1
    22     9    21    1
    23    10    22    1
    24    12    23    1
    25    12    24    1
    26    13    25    1
    27    13    26    1
    28    14    27    1
    29    15    28    1
    30    16    29    1
    31    17    30    1
