@<TRIPOS>MOLECULE

  31   34
SMALL
USER_CHARGES
@<TRIPOS>ATOM
   1 C1           3.5496     3.5030    -0.0091 C.ar         1    LIG   0.0000
   2 C2           2.3416     4.1924     0.0011 C.ar         1    LIG   0.0000
   3 C3           1.1450     3.4823     0.0084 C.ar         1    LIG   0.0000
   4 C4           1.1644     2.0914     0.0038 C.ar         1    LIG   0.0000
   5 C5           2.3794     1.4125    -0.0076 C.ar         1    LIG   0.0000
   6 C6           3.5809     2.1123    -0.0136 C.ar         1    LIG   0.0000
   7 C7           2.3827     0.0214    -0.0112 C.ar         1    LIG   0.0000
   8 C8           1.1567    -0.6381    -0.0060 C.ar         1    LIG   0.0000
   9 C9          -0.0612     0.0464    -0.0027 C.ar         1    LIG   0.0000
  10 C10         -1.4289    -0.3406    -0.0159 C.2          1    LIG   0.0000
  11 C11         -2.1796     0.7984     0.0180 C.2          1    LIG   0.0000
  12 O12         -1.3146     1.8091     0.0244 O.2          1    LIG   0.0000
  13 C13         -0.0521     1.4171     0.0111 C.ar         1    LIG   0.0000
  14 C14         -3.7048     0.7344     0.0592 C.3          1    LIG   0.0000
  15 C15         -4.3130    -0.6030    -0.3418 C.3          1    LIG   0.0000
  16 C16         -3.5765    -1.7158     0.3913 C.3          1    LIG   0.0000
  17 C17         -2.1247    -1.6952    -0.0762 C.3          1    LIG   0.0000
  18 H            4.4086     4.0149    -0.0133 H            1    LIG   0.0000
  19 H            2.3332     5.1924     0.0032 H            1    LIG   0.0000
  20 H            0.2726     3.9710     0.0169 H            1    LIG   0.0000
  21 H            4.4534     1.6238    -0.0211 H            1    LIG   0.0000
  22 H            3.2417    -0.4905    -0.0174 H            1    LIG   0.0000
  23 H            1.1475    -1.6380    -0.0046 H            1    LIG   0.0000
  24 H           -4.0599     1.4335    -0.5615 H            1    LIG   0.0000
  25 H           -3.9971     0.9387     0.9935 H            1    LIG   0.0000
  26 H           -4.2203    -0.7320    -1.3291 H            1    LIG   0.0000
  27 H           -5.2814    -0.6201    -0.0929 H            1    LIG   0.0000
  28 H           -3.6190    -1.5602     1.3782 H            1    LIG   0.0000
  29 H           -3.9917    -2.5995     0.1750 H            1    LIG   0.0000
  30 H           -1.6085    -2.3313     0.4973 H            1    LIG   0.0000
  31 H           -2.1033    -2.0094    -1.0253 H            1    LIG   0.0000
@<TRIPOS>BOND
   1        1        2 ar
   2        2        3 ar
   3        3        4 ar
   4        4        5 ar
   5        5        6 ar
   6        6        1 ar
   7        5        7 ar
   8        7        8 ar
   9        8        9 ar
  10        9       10 1
  11       10       11 2
  12       11       12 1
  13       12       13 1
  14       13        9 ar
  15       13        4 ar
  16       11       14 1
  17       14       15 1
  18       15       16 1
  19       16       17 1
  20       17       10 1
  21        1       18 1
  22        2       19 1
  23        3       20 1
  24        6       21 1
  25        7       22 1
  26        8       23 1
  27       14       24 1
  28       14       25 1
  29       15       26 1
  30       15       27 1
  31       16       28 1
  32       16       29 1
  33       17       30 1
  34       17       31 1

@<TRIPOS>MOLECULE

  31   34
SMALL
USER_CHARGES
@<TRIPOS>ATOM
   1 C1           3.5522     3.5073    -0.0083 C.ar         1    LIG   0.0000
   2 C2           2.3401     4.1890     0.0049 C.ar         1    LIG   0.0000
   3 C3           1.1404     3.4847     0.0107 C.ar         1    LIG   0.0000
   4 C4           1.1710     2.0939     0.0025 C.ar         1    LIG   0.0000
   5 C5           2.3842     1.4094    -0.0113 C.ar         1    LIG   0.0000
   6 C6           3.5817     2.1168    -0.0166 C.ar         1    LIG   0.0000
   7 C7           2.4052     0.0181    -0.0174 C.ar         1    LIG   0.0000
   8 C8           1.1947    -0.6684    -0.0145 C.ar         1    LIG   0.0000
   9 C9          -0.0183     0.0332     0.0106 C.ar         1    LIG   0.0000
  10 C10         -1.3847    -0.2937     0.0483 C.2          1    LIG   0.0000
  11 C11         -2.1619     0.8297     0.0092 C.2          1    LIG   0.0000
  12 O12         -1.2959     1.8231     0.0072 O.2          1    LIG   0.0000
  13 C13         -0.0414     1.4098     0.0079 C.ar         1    LIG   0.0000
  14 C14         -3.6846     0.7835    -0.0266 C.3          1    LIG   0.0000
  15 C15         -4.2523    -0.5533     0.4407 C.3          1    LIG   0.0000
  16 C16         -3.5415    -1.6264    -0.3662 C.3          1    LIG   0.0000
  17 C17         -2.0994    -1.6371     0.1277 C.3          1    LIG   0.0000
  18 H            4.4099     4.0213    -0.0118 H            1    LIG   0.0000
  19 H            2.3308     5.1889     0.0102 H            1    LIG   0.0000
  20 H            0.2672     3.9719     0.0206 H            1    LIG   0.0000
  21 H            4.4554     1.6304    -0.0263 H            1    LIG   0.0000
  22 H            3.2731    -0.4787    -0.0238 H            1    LIG   0.0000
  23 H            1.1904    -1.6683    -0.0304 H            1    LIG   0.0000
  24 H           -3.9862     0.9467    -0.9660 H            1    LIG   0.0000
  25 H           -4.0393     1.5054     0.5676 H            1    LIG   0.0000
  26 H           -5.2373    -0.5888     0.2716 H            1    LIG   0.0000
  27 H           -4.0769    -0.6813     1.4168 H            1    LIG   0.0000
  28 H           -3.9683    -2.5173    -0.2115 H            1    LIG   0.0000
  29 H           -3.5733    -1.4063    -1.3411 H            1    LIG   0.0000
  30 H           -2.1002    -1.9326     1.0830 H            1    LIG   0.0000
  31 H           -1.5868    -2.2948    -0.4243 H            1    LIG   0.0000
@<TRIPOS>BOND
   1        1        2 ar
   2        2        3 ar
   3        3        4 ar
   4        4        5 ar
   5        5        6 ar
   6        6        1 ar
   7        5        7 ar
   8        7        8 ar
   9        8        9 ar
  10        9       10 1
  11       10       11 2
  12       11       12 1
  13       12       13 1
  14       13        9 ar
  15       13        4 ar
  16       11       14 1
  17       14       15 1
  18       15       16 1
  19       16       17 1
  20       17       10 1
  21        1       18 1
  22        2       19 1
  23        3       20 1
  24        6       21 1
  25        7       22 1
  26        8       23 1
  27       14       24 1
  28       14       25 1
  29       15       26 1
  30       15       27 1
  31       16       28 1
  32       16       29 1
  33       17       30 1
  34       17       31 1

@<TRIPOS>MOLECULE

  31   34
SMALL
USER_CHARGES
@<TRIPOS>ATOM
   1 C1           3.5550     3.5078    -0.0038 C.ar         1    LIG   0.0000
   2 C2           2.3398     4.1832     0.0087 C.ar         1    LIG   0.0000
   3 C3           1.1416     3.4767     0.0108 C.ar         1    LIG   0.0000
   4 C4           1.1677     2.0856     0.0013 C.ar         1    LIG   0.0000
   5 C5           2.3829     1.4059    -0.0088 C.ar         1    LIG   0.0000
   6 C6           3.5782     2.1172    -0.0124 C.ar         1    LIG   0.0000
   7 C7           2.3785     0.0145    -0.0201 C.ar         1    LIG   0.0000
   8 C8           1.1604    -0.6638    -0.0294 C.ar         1    LIG   0.0000
   9 C9          -0.0495     0.0239    -0.0298 C.ar         1    LIG   0.0000
  10 C10         -1.4095    -0.3710    -0.0859 C.2          1    LIG   0.0000
  11 C11         -2.1277     0.7704    -0.0364 C.2          1    LIG   0.0000
  12 O12         -1.2998     1.7930     0.0163 O.2          1    LIG   0.0000
  13 C13         -0.0421     1.3990     0.0011 C.ar         1    LIG   0.0000
  14 C14         -3.6475     0.6329    -0.1157 C.3          1    LIG   0.0000
  15 C15         -4.0173    -0.3125    -1.2538 C.3          1    LIG   0.0000
  16 C16         -3.1514    -1.5693    -1.3349 C.3          1    LIG   0.0000
  17 C17         -2.1215    -1.7062    -0.2210 C.3          1    LIG   0.0000
  18 H            4.4127     4.0220    -0.0066 H            1    LIG   0.0000
  19 H            2.3270     5.1831     0.0162 H            1    LIG   0.0000
  20 H            0.2688     3.9645     0.0191 H            1    LIG   0.0000
  21 H            4.4515     1.6302    -0.0211 H            1    LIG   0.0000
  22 H            3.2398    -0.4936    -0.0215 H            1    LIG   0.0000
  23 H            1.1560    -1.6638    -0.0360 H            1    LIG   0.0000
  24 H           -4.0546     1.5307    -0.2834 H            1    LIG   0.0000
  25 H           -3.9939     0.2658     0.7476 H            1    LIG   0.0000
  26 H           -3.9275     0.1856    -2.1163 H            1    LIG   0.0000
  27 H           -4.9684    -0.5951    -1.1296 H            1    LIG   0.0000
  28 H           -3.7549    -2.3659    -1.3006 H            1    LIG   0.0000
  29 H           -2.6652    -1.5567    -2.2087 H            1    LIG   0.0000
  30 H           -2.5775    -1.9378     0.6383 H            1    LIG   0.0000
  31 H           -1.4625    -2.4220    -0.4521 H            1    LIG   0.0000
@<TRIPOS>BOND
   1        1        2 ar
   2        2        3 ar
   3        3        4 ar
   4        4        5 ar
   5        5        6 ar
   6        6        1 ar
   7        5        7 ar
   8        7        8 ar
   9        8        9 ar
  10        9       10 1
  11       10       11 2
  12       11       12 1
  13       12       13 1
  14       13        9 ar
  15       13        4 ar
  16       11       14 1
  17       14       15 1
  18       15       16 1
  19       16       17 1
  20       17       10 1
  21        1       18 1
  22        2       19 1
  23        3       20 1
  24        6       21 1
  25        7       22 1
  26        8       23 1
  27       14       24 1
  28       14       25 1
  29       15       26 1
  30       15       27 1
  31       16       28 1
  32       16       29 1
  33       17       30 1
  34       17       31 1

@<TRIPOS>MOLECULE

  31   34
SMALL
USER_CHARGES
@<TRIPOS>ATOM
   1 C1           3.5508     3.5060    -0.0125 C.ar         1    LIG   0.0000
   2 C2           2.3377     4.1858    -0.0005 C.ar         1    LIG   0.0000
   3 C3           1.1511     3.4597     0.0030 C.ar         1    LIG   0.0000
   4 C4           1.1496     2.0680    -0.0044 C.ar         1    LIG   0.0000
   5 C5           2.3740     1.4049    -0.0154 C.ar         1    LIG   0.0000
   6 C6           3.5690     2.1159    -0.0200 C.ar         1    LIG   0.0000
   7 C7           2.3792     0.0138    -0.0239 C.ar         1    LIG   0.0000
   8 C8           1.1602    -0.6649    -0.0163 C.ar         1    LIG   0.0000
   9 C9          -0.0679    -0.0053    -0.0034 C.ar         1    LIG   0.0000
  10 C10         -1.4392    -0.3862     0.0273 C.2          1    LIG   0.0000
  11 C11         -2.1519     0.7589     0.0498 C.2          1    LIG   0.0000
  12 O12         -1.3070     1.7734     0.0182 O.2          1    LIG   0.0000
  13 C13         -0.0546     1.3679     0.0002 C.ar         1    LIG   0.0000
  14 C14         -3.6581     0.6119     0.1423 C.3          1    LIG   0.0000
  15 C15         -3.9443    -0.3471     1.3013 C.3          1    LIG   0.0000
  16 C16         -3.1247    -1.6304     1.2656 C.3          1    LIG   0.0000
  17 C17         -2.1375    -1.7307     0.1066 C.3          1    LIG   0.0000
  18 H            4.4103     4.0171    -0.0157 H            1    LIG   0.0000
  19 H            2.3186     5.1856     0.0056 H            1    LIG   0.0000
  20 H            0.2791     3.9490     0.0109 H            1    LIG   0.0000
  21 H            4.4415     1.6273    -0.0287 H            1    LIG   0.0000
  22 H            3.2422    -0.4913    -0.0354 H            1    LIG   0.0000
  23 H            1.1678    -1.6648    -0.0203 H            1    LIG   0.0000
  24 H           -4.0195     0.2365    -0.7113 H            1    LIG   0.0000
  25 H           -4.0796     1.5011     0.3202 H            1    LIG   0.0000
  26 H           -4.9132    -0.5928     1.2734 H            1    LIG   0.0000
  27 H           -3.7455     0.1283     2.1583 H            1    LIG   0.0000
  28 H           -2.6083    -1.6930     2.1196 H            1    LIG   0.0000
  29 H           -3.7580    -2.4017     1.2017 H            1    LIG   0.0000
  30 H           -1.4723    -2.4571     0.2797 H            1    LIG   0.0000
  31 H           -2.6230    -1.9200    -0.7469 H            1    LIG   0.0000
@<TRIPOS>BOND
   1        1        2 ar
   2        2        3 ar
   3        3        4 ar
   4        4        5 ar
   5        5        6 ar
   6        6        1 ar
   7        5        7 ar
   8        7        8 ar
   9        8        9 ar
  10        9       10 1
  11       10       11 2
  12       11       12 1
  13       12       13 1
  14       13        9 ar
  15       13        4 ar
  16       11       14 1
  17       14       15 1
  18       15       16 1
  19       16       17 1
  20       17       10 1
  21        1       18 1
  22        2       19 1
  23        3       20 1
  24        6       21 1
  25        7       22 1
  26        8       23 1
  27       14       24 1
  28       14       25 1
  29       15       26 1
  30       15       27 1
  31       16       28 1
  32       16       29 1
  33       17       30 1
  34       17       31 1

