@<TRIPOS>MOLECULE
*****
 31 34 0 0 0
SMALL
USER_CHARGES

@<TRIPOS>ATOM
      1 C1          3.5508    3.5060   -0.0125 C.ar    1  LIG1        0.0000
      2 C2          2.3377    4.1858   -0.0005 C.ar    1  LIG1        0.0000
      3 C3          1.1511    3.4597    0.0030 C.ar    1  LIG1        0.0000
      4 C4          1.1496    2.0680   -0.0044 C.ar    1  LIG1        0.0000
      5 C5          2.3740    1.4049   -0.0154 C.ar    1  LIG1        0.0000
      6 C6          3.5690    2.1159   -0.0200 C.ar    1  LIG1        0.0000
      7 C7          2.3792    0.0138   -0.0239 C.ar    1  LIG1        0.0000
      8 C8          1.1602   -0.6649   -0.0163 C.ar    1  LIG1        0.0000
      9 C9         -0.0679   -0.0053   -0.0034 C.ar    1  LIG1        0.0000
     10 C10        -1.4392   -0.3862    0.0273 C.2     1  LIG1        0.0000
     11 C11        -2.1519    0.7589    0.0498 C.2     1  LIG1        0.0000
     12 O12        -1.3070    1.7734    0.0182 O.2     1  LIG1        0.0000
     13 C13        -0.0546    1.3679    0.0002 C.ar    1  LIG1        0.0000
     14 C14        -3.6581    0.6119    0.1423 C.3     1  LIG1        0.0000
     15 C15        -3.9443   -0.3471    1.3013 C.3     1  LIG1        0.0000
     16 C16        -3.1247   -1.6304    1.2656 C.3     1  LIG1        0.0000
     17 C17        -2.1375   -1.7307    0.1066 C.3     1  LIG1        0.0000
     18 H           4.4103    4.0171   -0.0157 H       1  LIG1        0.0000
     19 H           2.3186    5.1856    0.0056 H       1  LIG1        0.0000
     20 H           0.2791    3.9490    0.0109 H       1  LIG1        0.0000
     21 H           4.4415    1.6273   -0.0287 H       1  LIG1        0.0000
     22 H           3.2422   -0.4913   -0.0354 H       1  LIG1        0.0000
     23 H           1.1678   -1.6648   -0.0203 H       1  LIG1        0.0000
     24 H          -4.0195    0.2365   -0.7113 H       1  LIG1        0.0000
     25 H          -4.0796    1.5011    0.3202 H       1  LIG1        0.0000
     26 H          -4.9132   -0.5928    1.2734 H       1  LIG1        0.0000
     27 H          -3.7455    0.1283    2.1583 H       1  LIG1        0.0000
     28 H          -2.6083   -1.6930    2.1196 H       1  LIG1        0.0000
     29 H          -3.7580   -2.4017    1.2017 H       1  LIG1        0.0000
     30 H          -1.4723   -2.4571    0.2797 H       1  LIG1        0.0000
     31 H          -2.6230   -1.9200   -0.7469 H       1  LIG1        0.0000
@<TRIPOS>BOND
     1     1     2   ar
     2     2     3   ar
     3     3     4   ar
     4     4     5   ar
     5     5     6   ar
     6     6     1   ar
     7     5     7   ar
     8     7     8   ar
     9     8     9   ar
    10     9    10    1
    11    10    11    2
    12    11    12    1
    13    12    13    1
    14    13     9   ar
    15    13     4   ar
    16    11    14    1
    17    14    15    1
    18    15    16    1
    19    16    17    1
    20    17    10    1
    21     1    18    1
    22     2    19    1
    23     3    20    1
    24     6    21    1
    25     7    22    1
    26     8    23    1
    27    14    24    1
    28    14    25    1
    29    15    26    1
    30    15    27    1
    31    16    28    1
    32    16    29    1
    33    17    30    1
    34    17    31    1
