@<TRIPOS>MOLECULE
*****
 31 34 0 0 0
SMALL
USER_CHARGES

@<TRIPOS>ATOM
      1 C1          3.5522    3.5073   -0.0083 C.ar    1  LIG1        0.0000
      2 C2          2.3401    4.1890    0.0049 C.ar    1  LIG1        0.0000
      3 C3          1.1404    3.4847    0.0107 C.ar    1  LIG1        0.0000
      4 C4          1.1710    2.0939    0.0025 C.ar    1  LIG1        0.0000
      5 C5          2.3842    1.4094   -0.0113 C.ar    1  LIG1        0.0000
      6 C6          3.5817    2.1168   -0.0166 C.ar    1  LIG1        0.0000
      7 C7          2.4052    0.0181   -0.0174 C.ar    1  LIG1        0.0000
      8 C8          1.1947   -0.6684   -0.0145 C.ar    1  LIG1        0.0000
      9 C9         -0.0183    0.0332    0.0106 C.ar    1  LIG1        0.0000
     10 C10        -1.3847   -0.2937    0.0483 C.2     1  LIG1        0.0000
     11 C11        -2.1619    0.8297    0.0092 C.2     1  LIG1        0.0000
     12 O12        -1.2959    1.8231    0.0072 O.2     1  LIG1        0.0000
     13 C13        -0.0414    1.4098    0.0079 C.ar    1  LIG1        0.0000
     14 C14        -3.6846    0.7835   -0.0266 C.3     1  LIG1        0.0000
     15 C15        -4.2523   -0.5533    0.4407 C.3     1  LIG1        0.0000
     16 C16        -3.5415   -1.6264   -0.3662 C.3     1  LIG1        0.0000
     17 C17        -2.0994   -1.6371    0.1277 C.3     1  LIG1        0.0000
     18 H           4.4099    4.0213   -0.0118 H       1  LIG1        0.0000
     19 H           2.3308    5.1889    0.0102 H       1  LIG1        0.0000
     20 H           0.2672    3.9719    0.0206 H       1  LIG1        0.0000
     21 H           4.4554    1.6304   -0.0263 H       1  LIG1        0.0000
     22 H           3.2731   -0.4787   -0.0238 H       1  LIG1        0.0000
     23 H           1.1904   -1.6683   -0.0304 H       1  LIG1        0.0000
     24 H          -3.9862    0.9467   -0.9660 H       1  LIG1        0.0000
     25 H          -4.0393    1.5054    0.5676 H       1  LIG1        0.0000
     26 H          -5.2373   -0.5888    0.2716 H       1  LIG1        0.0000
     27 H          -4.0769   -0.6813    1.4168 H       1  LIG1        0.0000
     28 H          -3.9683   -2.5173   -0.2115 H       1  LIG1        0.0000
     29 H          -3.5733   -1.4063   -1.3411 H       1  LIG1        0.0000
     30 H          -2.1002   -1.9326    1.0830 H       1  LIG1        0.0000
     31 H          -1.5868   -2.2948   -0.4243 H       1  LIG1        0.0000
@<TRIPOS>BOND
     1     1     2   ar
     2     2     3   ar
     3     3     4   ar
     4     4     5   ar
     5     5     6   ar
     6     6     1   ar
     7     5     7   ar
     8     7     8   ar
     9     8     9   ar
    10     9    10    1
    11    10    11    2
    12    11    12    1
    13    12    13    1
    14    13     9   ar
    15    13     4   ar
    16    11    14    1
    17    14    15    1
    18    15    16    1
    19    16    17    1
    20    17    10    1
    21     1    18    1
    22     2    19    1
    23     3    20    1
    24     6    21    1
    25     7    22    1
    26     8    23    1
    27    14    24    1
    28    14    25    1
    29    15    26    1
    30    15    27    1
    31    16    28    1
    32    16    29    1
    33    17    30    1
    34    17    31    1
