@<TRIPOS>MOLECULE
*****
 31 34 0 0 0
SMALL
USER_CHARGES

@<TRIPOS>ATOM
      1 C1          3.5550    3.5078   -0.0038 C.ar    1  LIG1        0.0000
      2 C2          2.3398    4.1832    0.0087 C.ar    1  LIG1        0.0000
      3 C3          1.1416    3.4767    0.0108 C.ar    1  LIG1        0.0000
      4 C4          1.1677    2.0856    0.0013 C.ar    1  LIG1        0.0000
      5 C5          2.3829    1.4059   -0.0088 C.ar    1  LIG1        0.0000
      6 C6          3.5782    2.1172   -0.0124 C.ar    1  LIG1        0.0000
      7 C7          2.3785    0.0145   -0.0201 C.ar    1  LIG1        0.0000
      8 C8          1.1604   -0.6638   -0.0294 C.ar    1  LIG1        0.0000
      9 C9         -0.0495    0.0239   -0.0298 C.ar    1  LIG1        0.0000
     10 C10        -1.4095   -0.3710   -0.0859 C.2     1  LIG1        0.0000
     11 C11        -2.1277    0.7704   -0.0364 C.2     1  LIG1        0.0000
     12 O12        -1.2998    1.7930    0.0163 O.2     1  LIG1        0.0000
     13 C13        -0.0421    1.3990    0.0011 C.ar    1  LIG1        0.0000
     14 C14        -3.6475    0.6329   -0.1157 C.3     1  LIG1        0.0000
     15 C15        -4.0173   -0.3125   -1.2538 C.3     1  LIG1        0.0000
     16 C16        -3.1514   -1.5693   -1.3349 C.3     1  LIG1        0.0000
     17 C17        -2.1215   -1.7062   -0.2210 C.3     1  LIG1        0.0000
     18 H           4.4127    4.0220   -0.0066 H       1  LIG1        0.0000
     19 H           2.3270    5.1831    0.0162 H       1  LIG1        0.0000
     20 H           0.2688    3.9645    0.0191 H       1  LIG1        0.0000
     21 H           4.4515    1.6302   -0.0211 H       1  LIG1        0.0000
     22 H           3.2398   -0.4936   -0.0215 H       1  LIG1        0.0000
     23 H           1.1560   -1.6638   -0.0360 H       1  LIG1        0.0000
     24 H          -4.0546    1.5307   -0.2834 H       1  LIG1        0.0000
     25 H          -3.9939    0.2658    0.7476 H       1  LIG1        0.0000
     26 H          -3.9275    0.1856   -2.1163 H       1  LIG1        0.0000
     27 H          -4.9684   -0.5951   -1.1296 H       1  LIG1        0.0000
     28 H          -3.7549   -2.3659   -1.3006 H       1  LIG1        0.0000
     29 H          -2.6652   -1.5567   -2.2087 H       1  LIG1        0.0000
     30 H          -2.5775   -1.9378    0.6383 H       1  LIG1        0.0000
     31 H          -1.4625   -2.4220   -0.4521 H       1  LIG1        0.0000
@<TRIPOS>BOND
     1     1     2   ar
     2     2     3   ar
     3     3     4   ar
     4     4     5   ar
     5     5     6   ar
     6     6     1   ar
     7     5     7   ar
     8     7     8   ar
     9     8     9   ar
    10     9    10    1
    11    10    11    2
    12    11    12    1
    13    12    13    1
    14    13     9   ar
    15    13     4   ar
    16    11    14    1
    17    14    15    1
    18    15    16    1
    19    16    17    1
    20    17    10    1
    21     1    18    1
    22     2    19    1
    23     3    20    1
    24     6    21    1
    25     7    22    1
    26     8    23    1
    27    14    24    1
    28    14    25    1
    29    15    26    1
    30    15    27    1
    31    16    28    1
    32    16    29    1
    33    17    30    1
    34    17    31    1
