@<TRIPOS>MOLECULE
*****
 31 34 0 0 0
SMALL
USER_CHARGES

@<TRIPOS>ATOM
      1 C1          3.5496    3.5030   -0.0091 C.ar    1  LIG1        0.0000
      2 C2          2.3416    4.1924    0.0011 C.ar    1  LIG1        0.0000
      3 C3          1.1450    3.4823    0.0084 C.ar    1  LIG1        0.0000
      4 C4          1.1644    2.0914    0.0038 C.ar    1  LIG1        0.0000
      5 C5          2.3794    1.4125   -0.0076 C.ar    1  LIG1        0.0000
      6 C6          3.5809    2.1123   -0.0136 C.ar    1  LIG1        0.0000
      7 C7          2.3827    0.0214   -0.0112 C.ar    1  LIG1        0.0000
      8 C8          1.1567   -0.6381   -0.0060 C.ar    1  LIG1        0.0000
      9 C9         -0.0612    0.0464   -0.0027 C.ar    1  LIG1        0.0000
     10 C10        -1.4289   -0.3406   -0.0159 C.2     1  LIG1        0.0000
     11 C11        -2.1796    0.7984    0.0180 C.2     1  LIG1        0.0000
     12 O12        -1.3146    1.8091    0.0244 O.2     1  LIG1        0.0000
     13 C13        -0.0521    1.4171    0.0111 C.ar    1  LIG1        0.0000
     14 C14        -3.7048    0.7344    0.0592 C.3     1  LIG1        0.0000
     15 C15        -4.3130   -0.6030   -0.3418 C.3     1  LIG1        0.0000
     16 C16        -3.5765   -1.7158    0.3913 C.3     1  LIG1        0.0000
     17 C17        -2.1247   -1.6952   -0.0762 C.3     1  LIG1        0.0000
     18 H           4.4086    4.0149   -0.0133 H       1  LIG1        0.0000
     19 H           2.3332    5.1924    0.0032 H       1  LIG1        0.0000
     20 H           0.2726    3.9710    0.0169 H       1  LIG1        0.0000
     21 H           4.4534    1.6238   -0.0211 H       1  LIG1        0.0000
     22 H           3.2417   -0.4905   -0.0174 H       1  LIG1        0.0000
     23 H           1.1475   -1.6380   -0.0046 H       1  LIG1        0.0000
     24 H          -4.0599    1.4335   -0.5615 H       1  LIG1        0.0000
     25 H          -3.9971    0.9387    0.9935 H       1  LIG1        0.0000
     26 H          -4.2203   -0.7320   -1.3291 H       1  LIG1        0.0000
     27 H          -5.2814   -0.6201   -0.0929 H       1  LIG1        0.0000
     28 H          -3.6190   -1.5602    1.3782 H       1  LIG1        0.0000
     29 H          -3.9917   -2.5995    0.1750 H       1  LIG1        0.0000
     30 H          -1.6085   -2.3313    0.4973 H       1  LIG1        0.0000
     31 H          -2.1033   -2.0094   -1.0253 H       1  LIG1        0.0000
@<TRIPOS>BOND
     1     1     2   ar
     2     2     3   ar
     3     3     4   ar
     4     4     5   ar
     5     5     6   ar
     6     6     1   ar
     7     5     7   ar
     8     7     8   ar
     9     8     9   ar
    10     9    10    1
    11    10    11    2
    12    11    12    1
    13    12    13    1
    14    13     9   ar
    15    13     4   ar
    16    11    14    1
    17    14    15    1
    18    15    16    1
    19    16    17    1
    20    17    10    1
    21     1    18    1
    22     2    19    1
    23     3    20    1
    24     6    21    1
    25     7    22    1
    26     8    23    1
    27    14    24    1
    28    14    25    1
    29    15    26    1
    30    15    27    1
    31    16    28    1
    32    16    29    1
    33    17    30    1
    34    17    31    1
