@<TRIPOS>MOLECULE

  64   67
SMALL
USER_CHARGES
@<TRIPOS>ATOM
   1 C1          -1.9235     1.2267     4.0525 C.3          1    LIG   0.0000
   2 O2          -0.5233     1.2790     3.8218 O.3          1    LIG   0.0000
   3 C3          -0.0947     2.3457     3.1937 C.2          1    LIG   0.0000
   4 O4          -0.8715     3.1955     2.8555 O.2          1    LIG   0.0000
   5 C5           1.3195     2.4997     2.9070 C.2          1    LIG   0.0000
   6 C6           1.8771     1.8771     1.8771 C.2          1    LIG   0.0000
   7 C7           1.0000     1.0000     1.0000 C.3          1    LIG   0.0000
   8 N8           1.5074    -0.3794     1.0233 N.pl3        1    LIG   0.0000
   9 C9           0.8586    -1.3766     0.2851 C.ar         1    LIG   0.0000
  10 C10         -0.2654    -1.0526    -0.4675 C.ar         1    LIG   0.0000
  11 C11         -0.9034    -2.0500    -1.1977 C.ar         1    LIG   0.0000
  12 C12         -0.4336    -3.3593    -1.1844 C.ar         1    LIG   0.0000
  13 C13          0.6914    -3.6702    -0.4277 C.ar         1    LIG   0.0000
  14 N14          1.1540    -4.9918    -0.4228 N.am         1    LIG   0.0000
  15 C15          0.2721    -6.0269    -0.5893 C.2          1    LIG   0.0000
  16 O16         -0.8969    -5.8009    -0.7394 O.2          1    LIG   0.0000
  17 C17          0.7512    -7.3957    -0.5843 C.ar         1    LIG   0.0000
  18 C18         -0.1384    -8.4354    -0.3344 C.ar         1    LIG   0.0000
  19 C19          0.3299    -9.7451    -0.3308 C.ar         1    LIG   0.0000
  20 C20          1.6750   -10.0042    -0.5756 C.ar         1    LIG   0.0000
  21 C21          2.5576    -8.9583    -0.8249 C.ar         1    LIG   0.0000
  22 C22          2.0975    -7.6453    -0.8297 C.ar         1    LIG   0.0000
  23 C23          1.3387    -2.6819     0.3072 C.ar         1    LIG   0.0000
  24 C24          2.5679    -3.0298     1.1314 C.3          1    LIG   0.0000
  25 N25          3.2409     1.9896     1.5657 N.am         1    LIG   0.0000
  26 C26          3.8148     1.2992     0.4032 C.3          1    LIG   0.0000
  27 C27          4.0810     2.7660     2.3761 C.2          1    LIG   0.0000
  28 O28          5.2728     2.8705     2.1367 O.2          1    LIG   0.0000
  29 N29          3.5682     3.4454     3.4881 N.am         1    LIG   0.0000
  30 C30          2.1381     3.3938     3.8318 C.3          1    LIG   0.0000
  31 C31          1.9077     3.0631     5.2977 C.ar         1    LIG   0.0000
  32 C32          0.9025     3.7185     6.0012 C.ar         1    LIG   0.0000
  33 C33          0.6990     3.4103     7.3422 C.ar         1    LIG   0.0000
  34 C34          1.4963     2.4554     7.9659 C.ar         1    LIG   0.0000
  35 C35          2.4991     1.8047     7.2546 C.ar         1    LIG   0.0000
  36 C36          2.7097     2.1075     5.9131 C.ar         1    LIG   0.0000
  37 H            1.7886     4.3214     3.6997 H            1    LIG   0.0000
  38 H           -2.1505     0.3804     4.5344 H            1    LIG   0.0000
  39 H           -2.1992     2.0109     4.6083 H            1    LIG   0.0000
  40 H           -2.4067     1.2519     3.1774 H            1    LIG   0.0000
  41 H            0.0616     1.0159     1.3452 H            1    LIG   0.0000
  42 H            1.0159     1.3452     0.0616 H            1    LIG   0.0000
  43 H            2.3160    -0.6056     1.5664 H            1    LIG   0.0000
  44 H           -0.6106    -0.1142    -0.4835 H            1    LIG   0.0000
  45 H           -1.7119    -1.8223    -1.7403 H            1    LIG   0.0000
  46 H           -0.8995    -4.0690    -1.7129 H            1    LIG   0.0000
  47 H            2.1281    -5.1801    -0.2978 H            1    LIG   0.0000
  48 H           -1.1041    -8.2433    -0.1593 H            1    LIG   0.0000
  49 H           -0.3003   -10.5007    -0.1521 H            1    LIG   0.0000
  50 H            2.0087   -10.9469    -0.5724 H            1    LIG   0.0000
  51 H            3.5231    -9.1502    -1.0007 H            1    LIG   0.0000
  52 H            2.7276    -6.8895    -1.0076 H            1    LIG   0.0000
  53 H            2.9038    -2.2083     1.5920 H            1    LIG   0.0000
  54 H            2.3271    -3.7198     1.8140 H            1    LIG   0.0000
  55 H            3.2812    -3.3903     0.5303 H            1    LIG   0.0000
  56 H            3.0959     0.7909    -0.0710 H            1    LIG   0.0000
  57 H            4.2142     1.9715    -0.2201 H            1    LIG   0.0000
  58 H            4.5250     0.6651     0.7092 H            1    LIG   0.0000
  59 H            4.1890     3.9788     4.0627 H            1    LIG   0.0000
  60 H            0.3324     4.4037     5.5479 H            1    LIG   0.0000
  61 H           -0.0204     3.8751     7.8583 H            1    LIG   0.0000
  62 H            1.3476     2.2359     8.9302 H            1    LIG   0.0000
  63 H            3.0689     1.1190     7.7076 H            1    LIG   0.0000
  64 H            3.4296     1.6434     5.3970 H            1    LIG   0.0000
@<TRIPOS>BOND
   1        1        2 1
   2        2        3 1
   3        3        4 2
   4        3        5 1
   5        5        6 2
   6        6        7 1
   7        7        8 1
   8        8        9 1
   9        9       10 ar
  10       10       11 ar
  11       11       12 ar
  12       12       13 ar
  13       13       14 1
  14       14       15 am
  15       15       16 2
  16       15       17 1
  17       17       18 ar
  18       18       19 ar
  19       19       20 ar
  20       20       21 ar
  21       21       22 ar
  22       22       17 ar
  23       13       23 ar
  24       23        9 ar
  25       23       24 1
  26        6       25 1
  27       25       26 1
  28       25       27 am
  29       27       28 2
  30       27       29 am
  31       29       30 1
  32       30        5 1
  33       30       31 1
  34       31       32 ar
  35       32       33 ar
  36       33       34 ar
  37       34       35 ar
  38       35       36 ar
  39       36       31 ar
  40       30       37 1
  41        1       38 1
  42        1       39 1
  43        1       40 1
  44        7       41 1
  45        7       42 1
  46        8       43 1
  47       10       44 1
  48       11       45 1
  49       12       46 1
  50       14       47 1
  51       18       48 1
  52       19       49 1
  53       20       50 1
  54       21       51 1
  55       22       52 1
  56       24       53 1
  57       24       54 1
  58       24       55 1
  59       26       56 1
  60       26       57 1
  61       26       58 1
  62       29       59 1
  63       32       60 1
  64       33       61 1
  65       34       62 1
  66       35       63 1
  67       36       64 1

@<TRIPOS>MOLECULE

  64   67
SMALL
USER_CHARGES
@<TRIPOS>ATOM
   1 C1          -1.9235     1.2267     4.0525 C.3          1    LIG   0.0000
   2 O2          -0.5233     1.2790     3.8218 O.3          1    LIG   0.0000
   3 C3          -0.0947     2.3457     3.1937 C.2          1    LIG   0.0000
   4 O4          -0.8715     3.1955     2.8555 O.2          1    LIG   0.0000
   5 C5           1.3195     2.4997     2.9070 C.2          1    LIG   0.0000
   6 C6           1.8771     1.8771     1.8771 C.2          1    LIG   0.0000
   7 C7           1.0000     1.0000     1.0000 C.3          1    LIG   0.0000
   8 N8           1.5074    -0.3794     1.0233 N.pl3        1    LIG   0.0000
   9 C9           0.8586    -1.3766     0.2851 C.ar         1    LIG   0.0000
  10 C10         -0.2654    -1.0526    -0.4675 C.ar         1    LIG   0.0000
  11 C11         -0.9034    -2.0500    -1.1977 C.ar         1    LIG   0.0000
  12 C12         -0.4336    -3.3593    -1.1844 C.ar         1    LIG   0.0000
  13 C13          0.6914    -3.6702    -0.4277 C.ar         1    LIG   0.0000
  14 N14          1.1540    -4.9918    -0.4228 N.am         1    LIG   0.0000
  15 C15          1.5411    -5.5864    -1.5948 C.2          1    LIG   0.0000
  16 O16          1.9375    -6.7190    -1.5906 O.2          1    LIG   0.0000
  17 C17          1.4717    -4.8470    -2.8405 C.ar         1    LIG   0.0000
  18 C18          1.4546    -5.5351    -4.0492 C.ar         1    LIG   0.0000
  19 C19          1.3886    -4.8179    -5.2392 C.ar         1    LIG   0.0000
  20 C20          1.3403    -3.4274    -5.2123 C.ar         1    LIG   0.0000
  21 C21          1.3576    -2.7475    -3.9989 C.ar         1    LIG   0.0000
  22 C22          1.4241    -3.4572    -2.8041 C.ar         1    LIG   0.0000
  23 C23          1.3387    -2.6819     0.3072 C.ar         1    LIG   0.0000
  24 C24          2.5679    -3.0298     1.1314 C.3          1    LIG   0.0000
  25 N25          3.2409     1.9896     1.5657 N.am         1    LIG   0.0000
  26 C26          3.8148     1.2992     0.4032 C.3          1    LIG   0.0000
  27 C27          4.0810     2.7660     2.3761 C.2          1    LIG   0.0000
  28 O28          5.2728     2.8705     2.1367 O.2          1    LIG   0.0000
  29 N29          3.5682     3.4454     3.4881 N.am         1    LIG   0.0000
  30 C30          2.1381     3.3938     3.8318 C.3          1    LIG   0.0000
  31 C31          1.9077     3.0631     5.2977 C.ar         1    LIG   0.0000
  32 C32          0.9025     3.7185     6.0012 C.ar         1    LIG   0.0000
  33 C33          0.6990     3.4103     7.3422 C.ar         1    LIG   0.0000
  34 C34          1.4963     2.4554     7.9659 C.ar         1    LIG   0.0000
  35 C35          2.4991     1.8047     7.2546 C.ar         1    LIG   0.0000
  36 C36          2.7097     2.1075     5.9131 C.ar         1    LIG   0.0000
  37 H            1.7886     4.3214     3.6997 H            1    LIG   0.0000
  38 H           -2.1505     0.3804     4.5344 H            1    LIG   0.0000
  39 H           -2.1992     2.0109     4.6083 H            1    LIG   0.0000
  40 H           -2.4067     1.2519     3.1774 H            1    LIG   0.0000
  41 H            0.0616     1.0159     1.3452 H            1    LIG   0.0000
  42 H            1.0159     1.3452     0.0616 H            1    LIG   0.0000
  43 H            2.3160    -0.6056     1.5664 H            1    LIG   0.0000
  44 H           -0.6106    -0.1142    -0.4835 H            1    LIG   0.0000
  45 H           -1.7119    -1.8223    -1.7403 H            1    LIG   0.0000
  46 H           -0.8995    -4.0690    -1.7129 H            1    LIG   0.0000
  47 H            1.2018    -5.5016     0.4361 H            1    LIG   0.0000
  48 H            1.4892    -6.5344    -4.0626 H            1    LIG   0.0000
  49 H            1.3759    -5.3016    -6.1143 H            1    LIG   0.0000
  50 H            1.2929    -2.9145    -6.0695 H            1    LIG   0.0000
  51 H            1.3222    -1.7482    -3.9853 H            1    LIG   0.0000
  52 H            1.4376    -2.9736    -1.9289 H            1    LIG   0.0000
  53 H            2.9038    -2.2083     1.5920 H            1    LIG   0.0000
  54 H            2.3271    -3.7198     1.8140 H            1    LIG   0.0000
  55 H            3.2812    -3.3903     0.5303 H            1    LIG   0.0000
  56 H            3.0959     0.7909    -0.0710 H            1    LIG   0.0000
  57 H            4.2142     1.9715    -0.2201 H            1    LIG   0.0000
  58 H            4.5250     0.6651     0.7092 H            1    LIG   0.0000
  59 H            4.1890     3.9788     4.0627 H            1    LIG   0.0000
  60 H            0.3324     4.4037     5.5479 H            1    LIG   0.0000
  61 H           -0.0204     3.8751     7.8583 H            1    LIG   0.0000
  62 H            1.3476     2.2359     8.9302 H            1    LIG   0.0000
  63 H            3.0689     1.1190     7.7076 H            1    LIG   0.0000
  64 H            3.4296     1.6434     5.3970 H            1    LIG   0.0000
@<TRIPOS>BOND
   1        1        2 1
   2        2        3 1
   3        3        4 2
   4        3        5 1
   5        5        6 2
   6        6        7 1
   7        7        8 1
   8        8        9 1
   9        9       10 ar
  10       10       11 ar
  11       11       12 ar
  12       12       13 ar
  13       13       14 1
  14       14       15 am
  15       15       16 2
  16       15       17 1
  17       17       18 ar
  18       18       19 ar
  19       19       20 ar
  20       20       21 ar
  21       21       22 ar
  22       22       17 ar
  23       13       23 ar
  24       23        9 ar
  25       23       24 1
  26        6       25 1
  27       25       26 1
  28       25       27 am
  29       27       28 2
  30       27       29 am
  31       29       30 1
  32       30        5 1
  33       30       31 1
  34       31       32 ar
  35       32       33 ar
  36       33       34 ar
  37       34       35 ar
  38       35       36 ar
  39       36       31 ar
  40       30       37 1
  41        1       38 1
  42        1       39 1
  43        1       40 1
  44        7       41 1
  45        7       42 1
  46        8       43 1
  47       10       44 1
  48       11       45 1
  49       12       46 1
  50       14       47 1
  51       18       48 1
  52       19       49 1
  53       20       50 1
  54       21       51 1
  55       22       52 1
  56       24       53 1
  57       24       54 1
  58       24       55 1
  59       26       56 1
  60       26       57 1
  61       26       58 1
  62       29       59 1
  63       32       60 1
  64       33       61 1
  65       34       62 1
  66       35       63 1
  67       36       64 1

@<TRIPOS>MOLECULE

  64   67
SMALL
USER_CHARGES
@<TRIPOS>ATOM
   1 C1          -1.9235     1.2267     4.0525 C.3          1    LIG   0.0000
   2 O2          -0.5233     1.2790     3.8218 O.3          1    LIG   0.0000
   3 C3          -0.0947     2.3457     3.1937 C.2          1    LIG   0.0000
   4 O4          -0.8715     3.1955     2.8555 O.2          1    LIG   0.0000
   5 C5           1.3195     2.4997     2.9070 C.2          1    LIG   0.0000
   6 C6           1.8771     1.8771     1.8771 C.2          1    LIG   0.0000
   7 C7           1.0000     1.0000     1.0000 C.3          1    LIG   0.0000
   8 N8           1.5074    -0.3794     1.0233 N.pl3        1    LIG   0.0000
   9 C9           0.8586    -1.3766     0.2851 C.ar         1    LIG   0.0000
  10 C10          0.7496    -1.2480    -1.0956 C.ar         1    LIG   0.0000
  11 C11          0.1032    -2.2438    -1.8206 C.ar         1    LIG   0.0000
  12 C12         -0.4320    -3.3597    -1.1854 C.ar         1    LIG   0.0000
  13 C13         -0.3162    -3.4762     0.1959 C.ar         1    LIG   0.0000
  14 N14         -0.8592    -4.6043     0.8232 N.am         1    LIG   0.0000
  15 C15         -0.0497    -5.4459     1.5395 C.2          1    LIG   0.0000
  16 O16         -0.5150    -6.4126     2.0770 O.2          1    LIG   0.0000
  17 C17          1.3697    -5.1686     1.6481 C.ar         1    LIG   0.0000
  18 C18          2.1068    -5.7451     2.6773 C.ar         1    LIG   0.0000
  19 C19          3.4674    -5.4731     2.7744 C.ar         1    LIG   0.0000
  20 C20          4.0772    -4.6327     1.8479 C.ar         1    LIG   0.0000
  21 C21          3.3324    -4.0608     0.8217 C.ar         1    LIG   0.0000
  22 C22          1.9708    -4.3271     0.7178 C.ar         1    LIG   0.0000
  23 C23          0.3279    -2.4873     0.9328 C.ar         1    LIG   0.0000
  24 C24          0.4505    -2.6224     2.4421 C.3          1    LIG   0.0000
  25 N25          3.2409     1.9896     1.5657 N.am         1    LIG   0.0000
  26 C26          3.8148     1.2992     0.4032 C.3          1    LIG   0.0000
  27 C27          4.0810     2.7660     2.3761 C.2          1    LIG   0.0000
  28 O28          5.2728     2.8705     2.1367 O.2          1    LIG   0.0000
  29 N29          3.5682     3.4454     3.4881 N.am         1    LIG   0.0000
  30 C30          2.1381     3.3938     3.8318 C.3          1    LIG   0.0000
  31 C31          1.9077     3.0631     5.2977 C.ar         1    LIG   0.0000
  32 C32          0.9025     3.7185     6.0012 C.ar         1    LIG   0.0000
  33 C33          0.6990     3.4103     7.3422 C.ar         1    LIG   0.0000
  34 C34          1.4963     2.4554     7.9659 C.ar         1    LIG   0.0000
  35 C35          2.4991     1.8047     7.2546 C.ar         1    LIG   0.0000
  36 C36          2.7097     2.1075     5.9131 C.ar         1    LIG   0.0000
  37 H            1.7886     4.3214     3.6997 H            1    LIG   0.0000
  38 H           -2.1505     0.3804     4.5344 H            1    LIG   0.0000
  39 H           -2.1992     2.0109     4.6083 H            1    LIG   0.0000
  40 H           -2.4067     1.2519     3.1774 H            1    LIG   0.0000
  41 H            0.0616     1.0159     1.3452 H            1    LIG   0.0000
  42 H            1.0159     1.3452     0.0616 H            1    LIG   0.0000
  43 H            2.3160    -0.6056     1.5664 H            1    LIG   0.0000
  44 H            1.1312    -0.4496    -1.5613 H            1    LIG   0.0000
  45 H            0.0220    -2.1562    -2.8134 H            1    LIG   0.0000
  46 H           -0.8947    -4.0700    -1.7157 H            1    LIG   0.0000
  47 H           -1.8379    -4.7955     0.7483 H            1    LIG   0.0000
  48 H            1.6633    -6.3485     3.3402 H            1    LIG   0.0000
  49 H            4.0075    -5.8816     3.5102 H            1    LIG   0.0000
  50 H            5.0556    -4.4391     1.9203 H            1    LIG   0.0000
  51 H            3.7758    -3.4579     0.1584 H            1    LIG   0.0000
  52 H            1.4303    -3.9181    -0.0174 H            1    LIG   0.0000
  53 H            0.9374    -1.8299     2.8092 H            1    LIG   0.0000
  54 H           -0.4623    -2.6701     2.8477 H            1    LIG   0.0000
  55 H            0.9570    -3.4561     2.6621 H            1    LIG   0.0000
  56 H            3.0959     0.7909    -0.0710 H            1    LIG   0.0000
  57 H            4.2142     1.9715    -0.2201 H            1    LIG   0.0000
  58 H            4.5250     0.6651     0.7092 H            1    LIG   0.0000
  59 H            4.1890     3.9788     4.0627 H            1    LIG   0.0000
  60 H            0.3324     4.4037     5.5479 H            1    LIG   0.0000
  61 H           -0.0204     3.8751     7.8583 H            1    LIG   0.0000
  62 H            1.3476     2.2359     8.9302 H            1    LIG   0.0000
  63 H            3.0689     1.1190     7.7076 H            1    LIG   0.0000
  64 H            3.4296     1.6434     5.3970 H            1    LIG   0.0000
@<TRIPOS>BOND
   1        1        2 1
   2        2        3 1
   3        3        4 2
   4        3        5 1
   5        5        6 2
   6        6        7 1
   7        7        8 1
   8        8        9 1
   9        9       10 ar
  10       10       11 ar
  11       11       12 ar
  12       12       13 ar
  13       13       14 1
  14       14       15 am
  15       15       16 2
  16       15       17 1
  17       17       18 ar
  18       18       19 ar
  19       19       20 ar
  20       20       21 ar
  21       21       22 ar
  22       22       17 ar
  23       13       23 ar
  24       23        9 ar
  25       23       24 1
  26        6       25 1
  27       25       26 1
  28       25       27 am
  29       27       28 2
  30       27       29 am
  31       29       30 1
  32       30        5 1
  33       30       31 1
  34       31       32 ar
  35       32       33 ar
  36       33       34 ar
  37       34       35 ar
  38       35       36 ar
  39       36       31 ar
  40       30       37 1
  41        1       38 1
  42        1       39 1
  43        1       40 1
  44        7       41 1
  45        7       42 1
  46        8       43 1
  47       10       44 1
  48       11       45 1
  49       12       46 1
  50       14       47 1
  51       18       48 1
  52       19       49 1
  53       20       50 1
  54       21       51 1
  55       22       52 1
  56       24       53 1
  57       24       54 1
  58       24       55 1
  59       26       56 1
  60       26       57 1
  61       26       58 1
  62       29       59 1
  63       32       60 1
  64       33       61 1
  65       34       62 1
  66       35       63 1
  67       36       64 1

@<TRIPOS>MOLECULE

  64   67
SMALL
USER_CHARGES
@<TRIPOS>ATOM
   1 C1          -1.9235     1.2267     4.0525 C.3          1    LIG   0.0000
   2 O2          -0.5233     1.2790     3.8218 O.3          1    LIG   0.0000
   3 C3          -0.0947     2.3457     3.1937 C.2          1    LIG   0.0000
   4 O4          -0.8715     3.1955     2.8555 O.2          1    LIG   0.0000
   5 C5           1.3195     2.4997     2.9070 C.2          1    LIG   0.0000
   6 C6           1.8771     1.8771     1.8771 C.2          1    LIG   0.0000
   7 C7           1.0000     1.0000     1.0000 C.3          1    LIG   0.0000
   8 N8           1.5074    -0.3794     1.0233 N.pl3        1    LIG   0.0000
   9 C9           0.8586    -1.3766     0.2851 C.ar         1    LIG   0.0000
  10 C10          0.3309    -2.4837     0.9415 C.ar         1    LIG   0.0000
  11 C11         -0.3120    -3.4692     0.1996 C.ar         1    LIG   0.0000
  12 C12         -0.4329    -3.3616    -1.1820 C.ar         1    LIG   0.0000
  13 C13          0.0992    -2.2494    -1.8263 C.ar         1    LIG   0.0000
  14 N14         -0.0291    -2.1531    -3.2173 N.am         1    LIG   0.0000
  15 C15         -1.2733    -2.1296    -3.7905 C.2          1    LIG   0.0000
  16 O16         -1.3832    -2.0471    -4.9826 O.2          1    LIG   0.0000
  17 C17         -2.4574    -2.2045    -2.9565 C.ar         1    LIG   0.0000
  18 C18         -3.6694    -2.5960    -3.5156 C.ar         1    LIG   0.0000
  19 C19         -4.8001    -2.6644    -2.7085 C.ar         1    LIG   0.0000
  20 C20         -4.7116    -2.3433    -1.3574 C.ar         1    LIG   0.0000
  21 C21         -3.4953    -1.9530    -0.8066 C.ar         1    LIG   0.0000
  22 C22         -2.3596    -1.8814    -1.6070 C.ar         1    LIG   0.0000
  23 C23          0.7447    -1.2566    -1.0960 C.ar         1    LIG   0.0000
  24 C24          1.3231    -0.0441    -1.8076 C.3          1    LIG   0.0000
  25 N25          3.2409     1.9896     1.5657 N.am         1    LIG   0.0000
  26 C26          3.8148     1.2992     0.4032 C.3          1    LIG   0.0000
  27 C27          4.0810     2.7660     2.3761 C.2          1    LIG   0.0000
  28 O28          5.2728     2.8705     2.1367 O.2          1    LIG   0.0000
  29 N29          3.5682     3.4454     3.4881 N.am         1    LIG   0.0000
  30 C30          2.1381     3.3938     3.8318 C.3          1    LIG   0.0000
  31 C31          1.9077     3.0631     5.2977 C.ar         1    LIG   0.0000
  32 C32          0.9025     3.7185     6.0012 C.ar         1    LIG   0.0000
  33 C33          0.6990     3.4103     7.3422 C.ar         1    LIG   0.0000
  34 C34          1.4963     2.4554     7.9659 C.ar         1    LIG   0.0000
  35 C35          2.4991     1.8047     7.2546 C.ar         1    LIG   0.0000
  36 C36          2.7097     2.1075     5.9131 C.ar         1    LIG   0.0000
  37 H            1.7886     4.3214     3.6997 H            1    LIG   0.0000
  38 H           -2.1505     0.3804     4.5344 H            1    LIG   0.0000
  39 H           -2.1992     2.0109     4.6083 H            1    LIG   0.0000
  40 H           -2.4067     1.2519     3.1774 H            1    LIG   0.0000
  41 H            0.0616     1.0159     1.3452 H            1    LIG   0.0000
  42 H            1.0159     1.3452     0.0616 H            1    LIG   0.0000
  43 H            2.3160    -0.6056     1.5664 H            1    LIG   0.0000
  44 H            0.4127    -2.5700     1.9344 H            1    LIG   0.0000
  45 H           -0.6930    -4.2672     0.6666 H            1    LIG   0.0000
  46 H           -0.8970    -4.0756    -1.7062 H            1    LIG   0.0000
  47 H            0.7874    -2.1015    -3.7924 H            1    LIG   0.0000
  48 H           -3.7271    -2.8259    -4.4871 H            1    LIG   0.0000
  49 H           -5.6769    -2.9444    -3.0994 H            1    LIG   0.0000
  50 H           -5.5263    -2.3934    -0.7796 H            1    LIG   0.0000
  51 H           -3.4373    -1.7238     0.1651 H            1    LIG   0.0000
  52 H           -1.4828    -1.6007    -1.2166 H            1    LIG   0.0000
  53 H            1.7479     0.5645    -1.1375 H            1    LIG   0.0000
  54 H            2.0106    -0.3427    -2.4696 H            1    LIG   0.0000
  55 H            0.5914     0.4434    -2.2840 H            1    LIG   0.0000
  56 H            3.0959     0.7909    -0.0710 H            1    LIG   0.0000
  57 H            4.2142     1.9715    -0.2201 H            1    LIG   0.0000
  58 H            4.5250     0.6651     0.7092 H            1    LIG   0.0000
  59 H            4.1890     3.9788     4.0627 H            1    LIG   0.0000
  60 H            0.3324     4.4037     5.5479 H            1    LIG   0.0000
  61 H           -0.0204     3.8751     7.8583 H            1    LIG   0.0000
  62 H            1.3476     2.2359     8.9302 H            1    LIG   0.0000
  63 H            3.0689     1.1190     7.7076 H            1    LIG   0.0000
  64 H            3.4296     1.6434     5.3970 H            1    LIG   0.0000
@<TRIPOS>BOND
   1        1        2 1
   2        2        3 1
   3        3        4 2
   4        3        5 1
   5        5        6 2
   6        6        7 1
   7        7        8 1
   8        8        9 1
   9        9       10 ar
  10       10       11 ar
  11       11       12 ar
  12       12       13 ar
  13       13       14 1
  14       14       15 am
  15       15       16 2
  16       15       17 1
  17       17       18 ar
  18       18       19 ar
  19       19       20 ar
  20       20       21 ar
  21       21       22 ar
  22       22       17 ar
  23       13       23 ar
  24       23        9 ar
  25       23       24 1
  26        6       25 1
  27       25       26 1
  28       25       27 am
  29       27       28 2
  30       27       29 am
  31       29       30 1
  32       30        5 1
  33       30       31 1
  34       31       32 ar
  35       32       33 ar
  36       33       34 ar
  37       34       35 ar
  38       35       36 ar
  39       36       31 ar
  40       30       37 1
  41        1       38 1
  42        1       39 1
  43        1       40 1
  44        7       41 1
  45        7       42 1
  46        8       43 1
  47       10       44 1
  48       11       45 1
  49       12       46 1
  50       14       47 1
  51       18       48 1
  52       19       49 1
  53       20       50 1
  54       21       51 1
  55       22       52 1
  56       24       53 1
  57       24       54 1
  58       24       55 1
  59       26       56 1
  60       26       57 1
  61       26       58 1
  62       29       59 1
  63       32       60 1
  64       33       61 1
  65       34       62 1
  66       35       63 1
  67       36       64 1

@<TRIPOS>MOLECULE

  64   67
SMALL
USER_CHARGES
@<TRIPOS>ATOM
   1 C1          -1.9235     1.2267     4.0525 C.3          1    LIG   0.0000
   2 O2          -0.5233     1.2790     3.8218 O.3          1    LIG   0.0000
   3 C3          -0.0947     2.3457     3.1937 C.2          1    LIG   0.0000
   4 O4          -0.8715     3.1955     2.8555 O.2          1    LIG   0.0000
   5 C5           1.3195     2.4997     2.9070 C.2          1    LIG   0.0000
   6 C6           1.8771     1.8771     1.8771 C.2          1    LIG   0.0000
   7 C7           1.0000     1.0000     1.0000 C.3          1    LIG   0.0000
   8 N8           1.5074    -0.3794     1.0233 N.pl3        1    LIG   0.0000
   9 C9           0.8586    -1.3766     0.2851 C.ar         1    LIG   0.0000
  10 C10          1.5552    -2.0613    -0.7052 C.ar         1    LIG   0.0000
  11 C11          0.9022    -3.0503    -1.4334 C.ar         1    LIG   0.0000
  12 C12         -0.4307    -3.3610    -1.1846 C.ar         1    LIG   0.0000
  13 C13         -1.1161    -2.6689    -0.1916 C.ar         1    LIG   0.0000
  14 N14         -2.4574    -2.9911     0.0489 N.am         1    LIG   0.0000
  15 C15         -2.8432    -3.4395     1.2846 C.2          1    LIG   0.0000
  16 O16         -2.0317    -3.5561     2.1609 O.2          1    LIG   0.0000
  17 C17         -4.2324    -3.7733     1.5337 C.ar         1    LIG   0.0000
  18 C18         -4.7051    -3.8207     2.8411 C.ar         1    LIG   0.0000
  19 C19         -6.0387    -4.1424     3.0708 C.ar         1    LIG   0.0000
  20 C20         -6.8844    -4.4122     1.9991 C.ar         1    LIG   0.0000
  21 C21         -6.4032    -4.3622     0.6949 C.ar         1    LIG   0.0000
  22 C22         -5.0704    -4.0419     0.4564 C.ar         1    LIG   0.0000
  23 C23         -0.4746    -1.6774     0.5440 C.ar         1    LIG   0.0000
  24 C24         -1.2306    -0.9258     1.6279 C.3          1    LIG   0.0000
  25 N25          3.2409     1.9896     1.5657 N.am         1    LIG   0.0000
  26 C26          3.8148     1.2992     0.4032 C.3          1    LIG   0.0000
  27 C27          4.0810     2.7660     2.3761 C.2          1    LIG   0.0000
  28 O28          5.2728     2.8705     2.1367 O.2          1    LIG   0.0000
  29 N29          3.5682     3.4454     3.4881 N.am         1    LIG   0.0000
  30 C30          2.1381     3.3938     3.8318 C.3          1    LIG   0.0000
  31 C31          1.9077     3.0631     5.2977 C.ar         1    LIG   0.0000
  32 C32          0.9025     3.7185     6.0012 C.ar         1    LIG   0.0000
  33 C33          0.6990     3.4103     7.3422 C.ar         1    LIG   0.0000
  34 C34          1.4963     2.4554     7.9659 C.ar         1    LIG   0.0000
  35 C35          2.4991     1.8047     7.2546 C.ar         1    LIG   0.0000
  36 C36          2.7097     2.1075     5.9131 C.ar         1    LIG   0.0000
  37 H            1.7886     4.3214     3.6997 H            1    LIG   0.0000
  38 H           -2.1505     0.3804     4.5344 H            1    LIG   0.0000
  39 H           -2.1992     2.0109     4.6083 H            1    LIG   0.0000
  40 H           -2.4067     1.2519     3.1774 H            1    LIG   0.0000
  41 H            0.0616     1.0159     1.3452 H            1    LIG   0.0000
  42 H            1.0159     1.3452     0.0616 H            1    LIG   0.0000
  43 H            2.3160    -0.6056     1.5664 H            1    LIG   0.0000
  44 H            2.5137    -1.8452    -0.8914 H            1    LIG   0.0000
  45 H            1.3985    -3.5455    -2.1465 H            1    LIG   0.0000
  46 H           -0.8910    -4.0739    -1.7138 H            1    LIG   0.0000
  47 H           -3.1336    -2.8940    -0.6813 H            1    LIG   0.0000
  48 H           -4.0929    -3.6256     3.6073 H            1    LIG   0.0000
  49 H           -6.3898    -4.1797     4.0063 H            1    LIG   0.0000
  50 H           -7.8427    -4.6432     2.1674 H            1    LIG   0.0000
  51 H           -7.0154    -4.5566    -0.0715 H            1    LIG   0.0000
  52 H           -4.7189    -4.0053    -0.4790 H            1    LIG   0.0000
  53 H           -0.6237    -0.2543     2.0531 H            1    LIG   0.0000
  54 H           -2.0153    -0.4566     1.2228 H            1    LIG   0.0000
  55 H           -1.5500    -1.5722     2.3208 H            1    LIG   0.0000
  56 H            3.0959     0.7909    -0.0710 H            1    LIG   0.0000
  57 H            4.2142     1.9715    -0.2201 H            1    LIG   0.0000
  58 H            4.5250     0.6651     0.7092 H            1    LIG   0.0000
  59 H            4.1890     3.9788     4.0627 H            1    LIG   0.0000
  60 H            0.3324     4.4037     5.5479 H            1    LIG   0.0000
  61 H           -0.0204     3.8751     7.8583 H            1    LIG   0.0000
  62 H            1.3476     2.2359     8.9302 H            1    LIG   0.0000
  63 H            3.0689     1.1190     7.7076 H            1    LIG   0.0000
  64 H            3.4296     1.6434     5.3970 H            1    LIG   0.0000
@<TRIPOS>BOND
   1        1        2 1
   2        2        3 1
   3        3        4 2
   4        3        5 1
   5        5        6 2
   6        6        7 1
   7        7        8 1
   8        8        9 1
   9        9       10 ar
  10       10       11 ar
  11       11       12 ar
  12       12       13 ar
  13       13       14 1
  14       14       15 am
  15       15       16 2
  16       15       17 1
  17       17       18 ar
  18       18       19 ar
  19       19       20 ar
  20       20       21 ar
  21       21       22 ar
  22       22       17 ar
  23       13       23 ar
  24       23        9 ar
  25       23       24 1
  26        6       25 1
  27       25       26 1
  28       25       27 am
  29       27       28 2
  30       27       29 am
  31       29       30 1
  32       30        5 1
  33       30       31 1
  34       31       32 ar
  35       32       33 ar
  36       33       34 ar
  37       34       35 ar
  38       35       36 ar
  39       36       31 ar
  40       30       37 1
  41        1       38 1
  42        1       39 1
  43        1       40 1
  44        7       41 1
  45        7       42 1
  46        8       43 1
  47       10       44 1
  48       11       45 1
  49       12       46 1
  50       14       47 1
  51       18       48 1
  52       19       49 1
  53       20       50 1
  54       21       51 1
  55       22       52 1
  56       24       53 1
  57       24       54 1
  58       24       55 1
  59       26       56 1
  60       26       57 1
  61       26       58 1
  62       29       59 1
  63       32       60 1
  64       33       61 1
  65       34       62 1
  66       35       63 1
  67       36       64 1

@<TRIPOS>MOLECULE

  64   67
SMALL
USER_CHARGES
@<TRIPOS>ATOM
   1 C1          -1.9235     1.2267     4.0525 C.3          1    LIG   0.0000
   2 O2          -0.5233     1.2790     3.8218 O.3          1    LIG   0.0000
   3 C3          -0.0947     2.3457     3.1937 C.2          1    LIG   0.0000
   4 O4          -0.8715     3.1955     2.8555 O.2          1    LIG   0.0000
   5 C5           1.3195     2.4997     2.9070 C.2          1    LIG   0.0000
   6 C6           1.8771     1.8771     1.8771 C.2          1    LIG   0.0000
   7 C7           1.0000     1.0000     1.0000 C.3          1    LIG   0.0000
   8 N8           1.5074    -0.3794     1.0233 N.pl3        1    LIG   0.0000
   9 C9           1.0405    -1.2809     1.9875 C.ar         1    LIG   0.0000
  10 C10         -0.2519    -1.1473     2.4841 C.ar         1    LIG   0.0000
  11 C11         -0.7070    -2.0477     3.4418 C.ar         1    LIG   0.0000
  12 C12          0.1098    -3.0737     3.9059 C.ar         1    LIG   0.0000
  13 C13          1.4002    -3.1963     3.4012 C.ar         1    LIG   0.0000
  14 N14          2.2122    -4.2332     3.8767 N.am         1    LIG   0.0000
  15 C15          2.0509    -4.6983     5.1552 C.2          1    LIG   0.0000
  16 O16          1.2137    -4.2170     5.8675 O.2          1    LIG   0.0000
  17 C17          2.8919    -5.7723     5.6476 C.ar         1    LIG   0.0000
  18 C18          3.0311    -5.9642     7.0183 C.ar         1    LIG   0.0000
  19 C19          3.8403    -6.9962     7.4817 C.ar         1    LIG   0.0000
  20 C20          4.4997    -7.8236     6.5778 C.ar         1    LIG   0.0000
  21 C21          4.3545    -7.6246     5.2087 C.ar         1    LIG   0.0000
  22 C22          3.5475    -6.5942     4.7367 C.ar         1    LIG   0.0000
  23 C23          1.8676    -2.3023     2.4430 C.ar         1    LIG   0.0000
  24 C24          3.2791    -2.4434     1.8962 C.3          1    LIG   0.0000
  25 N25          3.2409     1.9896     1.5657 N.am         1    LIG   0.0000
  26 C26          3.8148     1.2992     0.4032 C.3          1    LIG   0.0000
  27 C27          4.0810     2.7660     2.3761 C.2          1    LIG   0.0000
  28 O28          5.2728     2.8705     2.1367 O.2          1    LIG   0.0000
  29 N29          3.5682     3.4454     3.4881 N.am         1    LIG   0.0000
  30 C30          2.1381     3.3938     3.8318 C.3          1    LIG   0.0000
  31 C31          1.9077     3.0631     5.2977 C.ar         1    LIG   0.0000
  32 C32          0.9025     3.7185     6.0012 C.ar         1    LIG   0.0000
  33 C33          0.6990     3.4103     7.3422 C.ar         1    LIG   0.0000
  34 C34          1.4963     2.4554     7.9659 C.ar         1    LIG   0.0000
  35 C35          2.4991     1.8047     7.2546 C.ar         1    LIG   0.0000
  36 C36          2.7097     2.1075     5.9131 C.ar         1    LIG   0.0000
  37 H            1.7886     4.3214     3.6997 H            1    LIG   0.0000
  38 H           -2.1505     0.3804     4.5344 H            1    LIG   0.0000
  39 H           -2.1992     2.0109     4.6083 H            1    LIG   0.0000
  40 H           -2.4067     1.2519     3.1774 H            1    LIG   0.0000
  41 H            0.0616     1.0159     1.3452 H            1    LIG   0.0000
  42 H            1.0159     1.3452     0.0616 H            1    LIG   0.0000
  43 H            2.1861    -0.6740     0.3505 H            1    LIG   0.0000
  44 H           -0.8466    -0.4131     2.1566 H            1    LIG   0.0000
  45 H           -1.6353    -1.9560     3.8021 H            1    LIG   0.0000
  46 H           -0.2270    -3.7158     4.5945 H            1    LIG   0.0000
  47 H            2.9099    -4.6343     3.2830 H            1    LIG   0.0000
  48 H            2.5548    -5.3667     7.6633 H            1    LIG   0.0000
  49 H            3.9482    -7.1436     8.4649 H            1    LIG   0.0000
  50 H            5.0807    -8.5648     6.9140 H            1    LIG   0.0000
  51 H            4.8302    -8.2224     4.5636 H            1    LIG   0.0000
  52 H            3.4400    -6.4461     3.7536 H            1    LIG   0.0000
  53 H            3.4489    -1.7243     1.2224 H            1    LIG   0.0000
  54 H            3.9365    -2.3604     2.6452 H            1    LIG   0.0000
  55 H            3.3803    -3.3383     1.4615 H            1    LIG   0.0000
  56 H            3.0959     0.7909    -0.0710 H            1    LIG   0.0000
  57 H            4.2142     1.9715    -0.2201 H            1    LIG   0.0000
  58 H            4.5250     0.6651     0.7092 H            1    LIG   0.0000
  59 H            4.1890     3.9788     4.0627 H            1    LIG   0.0000
  60 H            0.3324     4.4037     5.5479 H            1    LIG   0.0000
  61 H           -0.0204     3.8751     7.8583 H            1    LIG   0.0000
  62 H            1.3476     2.2359     8.9302 H            1    LIG   0.0000
  63 H            3.0689     1.1190     7.7076 H            1    LIG   0.0000
  64 H            3.4296     1.6434     5.3970 H            1    LIG   0.0000
@<TRIPOS>BOND
   1        1        2 1
   2        2        3 1
   3        3        4 2
   4        3        5 1
   5        5        6 2
   6        6        7 1
   7        7        8 1
   8        8        9 1
   9        9       10 ar
  10       10       11 ar
  11       11       12 ar
  12       12       13 ar
  13       13       14 1
  14       14       15 am
  15       15       16 2
  16       15       17 1
  17       17       18 ar
  18       18       19 ar
  19       19       20 ar
  20       20       21 ar
  21       21       22 ar
  22       22       17 ar
  23       13       23 ar
  24       23        9 ar
  25       23       24 1
  26        6       25 1
  27       25       26 1
  28       25       27 am
  29       27       28 2
  30       27       29 am
  31       29       30 1
  32       30        5 1
  33       30       31 1
  34       31       32 ar
  35       32       33 ar
  36       33       34 ar
  37       34       35 ar
  38       35       36 ar
  39       36       31 ar
  40       30       37 1
  41        1       38 1
  42        1       39 1
  43        1       40 1
  44        7       41 1
  45        7       42 1
  46        8       43 1
  47       10       44 1
  48       11       45 1
  49       12       46 1
  50       14       47 1
  51       18       48 1
  52       19       49 1
  53       20       50 1
  54       21       51 1
  55       22       52 1
  56       24       53 1
  57       24       54 1
  58       24       55 1
  59       26       56 1
  60       26       57 1
  61       26       58 1
  62       29       59 1
  63       32       60 1
  64       33       61 1
  65       34       62 1
  66       35       63 1
  67       36       64 1

@<TRIPOS>MOLECULE

  64   67
SMALL
USER_CHARGES
@<TRIPOS>ATOM
   1 C1          -1.9235     1.2267     4.0525 C.3          1    LIG   0.0000
   2 O2          -0.5233     1.2790     3.8218 O.3          1    LIG   0.0000
   3 C3          -0.0947     2.3457     3.1937 C.2          1    LIG   0.0000
   4 O4          -0.8715     3.1955     2.8555 O.2          1    LIG   0.0000
   5 C5           1.3195     2.4997     2.9070 C.2          1    LIG   0.0000
   6 C6           1.8771     1.8771     1.8771 C.2          1    LIG   0.0000
   7 C7           1.0000     1.0000     1.0000 C.3          1    LIG   0.0000
   8 N8           1.5074    -0.3794     1.0233 N.pl3        1    LIG   0.0000
   9 C9           1.0405    -1.2809     1.9875 C.ar         1    LIG   0.0000
  10 C10         -0.2519    -1.1473     2.4841 C.ar         1    LIG   0.0000
  11 C11         -0.7070    -2.0477     3.4418 C.ar         1    LIG   0.0000
  12 C12          0.1098    -3.0737     3.9059 C.ar         1    LIG   0.0000
  13 C13          1.4002    -3.1963     3.4012 C.ar         1    LIG   0.0000
  14 N14          2.2122    -4.2332     3.8767 N.am         1    LIG   0.0000
  15 C15          1.8206    -5.5367     3.7201 C.2          1    LIG   0.0000
  16 O16          2.5165    -6.4254     4.1276 O.2          1    LIG   0.0000
  17 C17          0.5650    -5.8425     3.0619 C.ar         1    LIG   0.0000
  18 C18         -0.0327    -7.0826     3.2617 C.ar         1    LIG   0.0000
  19 C19         -1.2365    -7.3677     2.6259 C.ar         1    LIG   0.0000
  20 C20         -1.8303    -6.4174     1.8008 C.ar         1    LIG   0.0000
  21 C21         -1.2256    -5.1797     1.6069 C.ar         1    LIG   0.0000
  22 C22         -0.0211    -4.8867     2.2385 C.ar         1    LIG   0.0000
  23 C23          1.8676    -2.3023     2.4430 C.ar         1    LIG   0.0000
  24 C24          3.2791    -2.4434     1.8962 C.3          1    LIG   0.0000
  25 N25          3.2409     1.9896     1.5657 N.am         1    LIG   0.0000
  26 C26          3.8148     1.2992     0.4032 C.3          1    LIG   0.0000
  27 C27          4.0810     2.7660     2.3761 C.2          1    LIG   0.0000
  28 O28          5.2728     2.8705     2.1367 O.2          1    LIG   0.0000
  29 N29          3.5682     3.4454     3.4881 N.am         1    LIG   0.0000
  30 C30          2.1381     3.3938     3.8318 C.3          1    LIG   0.0000
  31 C31          1.9077     3.0631     5.2977 C.ar         1    LIG   0.0000
  32 C32          0.9025     3.7185     6.0012 C.ar         1    LIG   0.0000
  33 C33          0.6990     3.4103     7.3422 C.ar         1    LIG   0.0000
  34 C34          1.4963     2.4554     7.9659 C.ar         1    LIG   0.0000
  35 C35          2.4991     1.8047     7.2546 C.ar         1    LIG   0.0000
  36 C36          2.7097     2.1075     5.9131 C.ar         1    LIG   0.0000
  37 H            1.7886     4.3214     3.6997 H            1    LIG   0.0000
  38 H           -2.1505     0.3804     4.5344 H            1    LIG   0.0000
  39 H           -2.1992     2.0109     4.6083 H            1    LIG   0.0000
  40 H           -2.4067     1.2519     3.1774 H            1    LIG   0.0000
  41 H            0.0616     1.0159     1.3452 H            1    LIG   0.0000
  42 H            1.0159     1.3452     0.0616 H            1    LIG   0.0000
  43 H            2.1861    -0.6740     0.3505 H            1    LIG   0.0000
  44 H           -0.8466    -0.4131     2.1566 H            1    LIG   0.0000
  45 H           -1.6353    -1.9560     3.8021 H            1    LIG   0.0000
  46 H           -0.2270    -3.7158     4.5945 H            1    LIG   0.0000
  47 H            3.0780    -4.0224     4.3305 H            1    LIG   0.0000
  48 H            0.3984    -7.7616     3.8560 H            1    LIG   0.0000
  49 H           -1.6754    -8.2558     2.7618 H            1    LIG   0.0000
  50 H           -2.6958    -6.6252     1.3451 H            1    LIG   0.0000
  51 H           -1.6569    -4.5003     1.0132 H            1    LIG   0.0000
  52 H            0.4184    -3.9988     2.1022 H            1    LIG   0.0000
  53 H            3.4489    -1.7243     1.2224 H            1    LIG   0.0000
  54 H            3.9365    -2.3604     2.6452 H            1    LIG   0.0000
  55 H            3.3803    -3.3383     1.4615 H            1    LIG   0.0000
  56 H            3.0959     0.7909    -0.0710 H            1    LIG   0.0000
  57 H            4.2142     1.9715    -0.2201 H            1    LIG   0.0000
  58 H            4.5250     0.6651     0.7092 H            1    LIG   0.0000
  59 H            4.1890     3.9788     4.0627 H            1    LIG   0.0000
  60 H            0.3324     4.4037     5.5479 H            1    LIG   0.0000
  61 H           -0.0204     3.8751     7.8583 H            1    LIG   0.0000
  62 H            1.3476     2.2359     8.9302 H            1    LIG   0.0000
  63 H            3.0689     1.1190     7.7076 H            1    LIG   0.0000
  64 H            3.4296     1.6434     5.3970 H            1    LIG   0.0000
@<TRIPOS>BOND
   1        1        2 1
   2        2        3 1
   3        3        4 2
   4        3        5 1
   5        5        6 2
   6        6        7 1
   7        7        8 1
   8        8        9 1
   9        9       10 ar
  10       10       11 ar
  11       11       12 ar
  12       12       13 ar
  13       13       14 1
  14       14       15 am
  15       15       16 2
  16       15       17 1
  17       17       18 ar
  18       18       19 ar
  19       19       20 ar
  20       20       21 ar
  21       21       22 ar
  22       22       17 ar
  23       13       23 ar
  24       23        9 ar
  25       23       24 1
  26        6       25 1
  27       25       26 1
  28       25       27 am
  29       27       28 2
  30       27       29 am
  31       29       30 1
  32       30        5 1
  33       30       31 1
  34       31       32 ar
  35       32       33 ar
  36       33       34 ar
  37       34       35 ar
  38       35       36 ar
  39       36       31 ar
  40       30       37 1
  41        1       38 1
  42        1       39 1
  43        1       40 1
  44        7       41 1
  45        7       42 1
  46        8       43 1
  47       10       44 1
  48       11       45 1
  49       12       46 1
  50       14       47 1
  51       18       48 1
  52       19       49 1
  53       20       50 1
  54       21       51 1
  55       22       52 1
  56       24       53 1
  57       24       54 1
  58       24       55 1
  59       26       56 1
  60       26       57 1
  61       26       58 1
  62       29       59 1
  63       32       60 1
  64       33       61 1
  65       34       62 1
  66       35       63 1
  67       36       64 1

@<TRIPOS>MOLECULE

  64   67
SMALL
USER_CHARGES
@<TRIPOS>ATOM
   1 C1          -2.3347     2.8084     2.8737 C.3          1    LIG   0.0000
   2 O2          -0.9794     3.0329     2.5146 O.3          1    LIG   0.0000
   3 C3          -0.0947     2.3457     3.1937 C.2          1    LIG   0.0000
   4 O4          -0.4538     1.5888     4.0530 O.2          1    LIG   0.0000
   5 C5           1.3195     2.4997     2.9070 C.2          1    LIG   0.0000
   6 C6           1.8771     1.8771     1.8771 C.2          1    LIG   0.0000
   7 C7           1.0000     1.0000     1.0000 C.3          1    LIG   0.0000
   8 N8           1.5074    -0.3794     1.0233 N.pl3        1    LIG   0.0000
   9 C9           0.8586    -1.3766     0.2851 C.ar         1    LIG   0.0000
  10 C10          0.3309    -2.4837     0.9415 C.ar         1    LIG   0.0000
  11 C11         -0.3120    -3.4692     0.1996 C.ar         1    LIG   0.0000
  12 C12         -0.4329    -3.3616    -1.1820 C.ar         1    LIG   0.0000
  13 C13          0.0992    -2.2494    -1.8263 C.ar         1    LIG   0.0000
  14 N14         -0.0291    -2.1531    -3.2173 N.am         1    LIG   0.0000
  15 C15         -0.6965    -1.0930    -3.7719 C.2          1    LIG   0.0000
  16 O16         -1.1711    -0.2469    -3.0656 O.2          1    LIG   0.0000
  17 C17         -0.8294    -0.9932    -5.2126 C.ar         1    LIG   0.0000
  18 C18         -1.8250    -0.1893    -5.7579 C.ar         1    LIG   0.0000
  19 C19         -1.9457    -0.1000    -7.1407 C.ar         1    LIG   0.0000
  20 C20         -1.0760    -0.8100    -7.9628 C.ar         1    LIG   0.0000
  21 C21         -0.0830    -1.6114    -7.4088 C.ar         1    LIG   0.0000
  22 C22          0.0442    -1.7068    -6.0267 C.ar         1    LIG   0.0000
  23 C23          0.7447    -1.2566    -1.0960 C.ar         1    LIG   0.0000
  24 C24          1.3231    -0.0441    -1.8076 C.3          1    LIG   0.0000
  25 N25          3.2409     1.9896     1.5657 N.am         1    LIG   0.0000
  26 C26          3.8148     1.2992     0.4032 C.3          1    LIG   0.0000
  27 C27          4.0810     2.7660     2.3761 C.2          1    LIG   0.0000
  28 O28          5.2728     2.8705     2.1367 O.2          1    LIG   0.0000
  29 N29          3.5682     3.4454     3.4881 N.am         1    LIG   0.0000
  30 C30          2.1381     3.3938     3.8318 C.3          1    LIG   0.0000
  31 C31          1.9077     3.0631     5.2977 C.ar         1    LIG   0.0000
  32 C32          2.5543     1.9708     5.8666 C.ar         1    LIG   0.0000
  33 C33          2.3372     1.6750     7.2082 C.ar         1    LIG   0.0000
  34 C34          1.4813     2.4682     7.9665 C.ar         1    LIG   0.0000
  35 C35          0.8390     3.5588     7.3893 C.ar         1    LIG   0.0000
  36 C36          1.0501     3.8612     6.0479 C.ar         1    LIG   0.0000
  37 H            1.7886     4.3214     3.6997 H            1    LIG   0.0000
  38 H           -2.9291     3.3747     2.3028 H            1    LIG   0.0000
  39 H           -2.5607     1.8440     2.7361 H            1    LIG   0.0000
  40 H           -2.4690     3.0482     3.8352 H            1    LIG   0.0000
  41 H            0.0616     1.0159     1.3452 H            1    LIG   0.0000
  42 H            1.0159     1.3452     0.0616 H            1    LIG   0.0000
  43 H            2.3160    -0.6056     1.5664 H            1    LIG   0.0000
  44 H            0.4127    -2.5700     1.9344 H            1    LIG   0.0000
  45 H           -0.6930    -4.2672     0.6666 H            1    LIG   0.0000
  46 H           -0.8970    -4.0756    -1.7062 H            1    LIG   0.0000
  47 H            0.3664    -2.8582    -3.8060 H            1    LIG   0.0000
  48 H           -2.4471     0.3189    -5.1623 H            1    LIG   0.0000
  49 H           -2.6578     0.4745    -7.5442 H            1    LIG   0.0000
  50 H           -1.1652    -0.7438    -8.9566 H            1    LIG   0.0000
  51 H            0.5396    -2.1191    -8.0043 H            1    LIG   0.0000
  52 H            0.7557    -2.2819    -5.6229 H            1    LIG   0.0000
  53 H            1.7479     0.5645    -1.1375 H            1    LIG   0.0000
  54 H            2.0106    -0.3427    -2.4696 H            1    LIG   0.0000
  55 H            0.5914     0.4434    -2.2840 H            1    LIG   0.0000
  56 H            3.0959     0.7909    -0.0710 H            1    LIG   0.0000
  57 H            4.2142     1.9715    -0.2201 H            1    LIG   0.0000
  58 H            4.5250     0.6651     0.7092 H            1    LIG   0.0000
  59 H            4.1890     3.9788     4.0627 H            1    LIG   0.0000
  60 H            3.1685     1.4044     5.3171 H            1    LIG   0.0000
  61 H            2.7963     0.8922     7.6281 H            1    LIG   0.0000
  62 H            1.3272     2.2530     8.9308 H            1    LIG   0.0000
  63 H            0.2253     4.1257     7.9389 H            1    LIG   0.0000
  64 H            0.5905     4.6436     5.6276 H            1    LIG   0.0000
@<TRIPOS>BOND
   1        1        2 1
   2        2        3 1
   3        3        4 2
   4        3        5 1
   5        5        6 2
   6        6        7 1
   7        7        8 1
   8        8        9 1
   9        9       10 ar
  10       10       11 ar
  11       11       12 ar
  12       12       13 ar
  13       13       14 1
  14       14       15 am
  15       15       16 2
  16       15       17 1
  17       17       18 ar
  18       18       19 ar
  19       19       20 ar
  20       20       21 ar
  21       21       22 ar
  22       22       17 ar
  23       13       23 ar
  24       23        9 ar
  25       23       24 1
  26        6       25 1
  27       25       26 1
  28       25       27 am
  29       27       28 2
  30       27       29 am
  31       29       30 1
  32       30        5 1
  33       30       31 1
  34       31       32 ar
  35       32       33 ar
  36       33       34 ar
  37       34       35 ar
  38       35       36 ar
  39       36       31 ar
  40       30       37 1
  41        1       38 1
  42        1       39 1
  43        1       40 1
  44        7       41 1
  45        7       42 1
  46        8       43 1
  47       10       44 1
  48       11       45 1
  49       12       46 1
  50       14       47 1
  51       18       48 1
  52       19       49 1
  53       20       50 1
  54       21       51 1
  55       22       52 1
  56       24       53 1
  57       24       54 1
  58       24       55 1
  59       26       56 1
  60       26       57 1
  61       26       58 1
  62       29       59 1
  63       32       60 1
  64       33       61 1
  65       34       62 1
  66       35       63 1
  67       36       64 1

@<TRIPOS>MOLECULE

  64   67
SMALL
USER_CHARGES
@<TRIPOS>ATOM
   1 C1           1.2267     4.0525    -1.9235 C.3          1    LIG   0.0000
   2 O2           1.2790     3.8218    -0.5233 O.3          1    LIG   0.0000
   3 C3           2.3457     3.1937    -0.0947 C.2          1    LIG   0.0000
   4 O4           3.1955     2.8555    -0.8715 O.2          1    LIG   0.0000
   5 C5           2.4997     2.9070     1.3195 C.2          1    LIG   0.0000
   6 C6           1.8771     1.8771     1.8771 C.2          1    LIG   0.0000
   7 C7           1.0000     1.0000     1.0000 C.3          1    LIG   0.0000
   8 N8           1.5074    -0.3794     1.0233 N.pl3        1    LIG   0.0000
   9 C9           0.8586    -1.3766     0.2851 C.ar         1    LIG   0.0000
  10 C10         -0.2654    -1.0526    -0.4675 C.ar         1    LIG   0.0000
  11 C11         -0.9034    -2.0500    -1.1977 C.ar         1    LIG   0.0000
  12 C12         -0.4336    -3.3593    -1.1844 C.ar         1    LIG   0.0000
  13 C13          0.6914    -3.6702    -0.4277 C.ar         1    LIG   0.0000
  14 N14          1.1540    -4.9918    -0.4228 N.am         1    LIG   0.0000
  15 C15          0.2721    -6.0269    -0.5893 C.2          1    LIG   0.0000
  16 O16         -0.8969    -5.8009    -0.7394 O.2          1    LIG   0.0000
  17 C17          0.7512    -7.3957    -0.5843 C.ar         1    LIG   0.0000
  18 C18         -0.1384    -8.4354    -0.3344 C.ar         1    LIG   0.0000
  19 C19          0.3299    -9.7451    -0.3308 C.ar         1    LIG   0.0000
  20 C20          1.6750   -10.0042    -0.5756 C.ar         1    LIG   0.0000
  21 C21          2.5576    -8.9583    -0.8249 C.ar         1    LIG   0.0000
  22 C22          2.0975    -7.6453    -0.8297 C.ar         1    LIG   0.0000
  23 C23          1.3387    -2.6819     0.3072 C.ar         1    LIG   0.0000
  24 C24          2.5679    -3.0298     1.1314 C.3          1    LIG   0.0000
  25 N25          1.9896     1.5657     3.2409 N.am         1    LIG   0.0000
  26 C26          1.2992     0.4032     3.8148 C.3          1    LIG   0.0000
  27 C27          2.7660     2.3761     4.0810 C.2          1    LIG   0.0000
  28 O28          2.8705     2.1367     5.2728 O.2          1    LIG   0.0000
  29 N29          3.4454     3.4881     3.5682 N.am         1    LIG   0.0000
  30 C30          3.3938     3.8318     2.1381 C.3          1    LIG   0.0000
  31 C31          3.0631     5.2977     1.9077 C.ar         1    LIG   0.0000
  32 C32          3.7185     6.0012     0.9025 C.ar         1    LIG   0.0000
  33 C33          3.4103     7.3422     0.6990 C.ar         1    LIG   0.0000
  34 C34          2.4554     7.9659     1.4963 C.ar         1    LIG   0.0000
  35 C35          1.8047     7.2546     2.4991 C.ar         1    LIG   0.0000
  36 C36          2.1075     5.9131     2.7097 C.ar         1    LIG   0.0000
  37 H            4.3214     3.6997     1.7886 H            1    LIG   0.0000
  38 H            0.3804     4.5344    -2.1505 H            1    LIG   0.0000
  39 H            2.0109     4.6083    -2.1992 H            1    LIG   0.0000
  40 H            1.2519     3.1774    -2.4067 H            1    LIG   0.0000
  41 H            0.0616     1.0159     1.3452 H            1    LIG   0.0000
  42 H            1.0159     1.3452     0.0616 H            1    LIG   0.0000
  43 H            2.3160    -0.6056     1.5664 H            1    LIG   0.0000
  44 H           -0.6106    -0.1142    -0.4835 H            1    LIG   0.0000
  45 H           -1.7119    -1.8223    -1.7403 H            1    LIG   0.0000
  46 H           -0.8995    -4.0690    -1.7129 H            1    LIG   0.0000
  47 H            2.1281    -5.1801    -0.2978 H            1    LIG   0.0000
  48 H           -1.1041    -8.2433    -0.1593 H            1    LIG   0.0000
  49 H           -0.3003   -10.5007    -0.1521 H            1    LIG   0.0000
  50 H            2.0087   -10.9469    -0.5724 H            1    LIG   0.0000
  51 H            3.5231    -9.1502    -1.0007 H            1    LIG   0.0000
  52 H            2.7276    -6.8895    -1.0076 H            1    LIG   0.0000
  53 H            2.9038    -2.2083     1.5920 H            1    LIG   0.0000
  54 H            2.3271    -3.7198     1.8140 H            1    LIG   0.0000
  55 H            3.2812    -3.3903     0.5303 H            1    LIG   0.0000
  56 H            0.7909    -0.0710     3.0959 H            1    LIG   0.0000
  57 H            1.9715    -0.2201     4.2142 H            1    LIG   0.0000
  58 H            0.6651     0.7092     4.5250 H            1    LIG   0.0000
  59 H            3.9788     4.0627     4.1890 H            1    LIG   0.0000
  60 H            4.4037     5.5479     0.3324 H            1    LIG   0.0000
  61 H            3.8751     7.8583    -0.0204 H            1    LIG   0.0000
  62 H            2.2359     8.9302     1.3476 H            1    LIG   0.0000
  63 H            1.1190     7.7076     3.0689 H            1    LIG   0.0000
  64 H            1.6434     5.3970     3.4296 H            1    LIG   0.0000
@<TRIPOS>BOND
   1        1        2 1
   2        2        3 1
   3        3        4 2
   4        3        5 1
   5        5        6 2
   6        6        7 1
   7        7        8 1
   8        8        9 1
   9        9       10 ar
  10       10       11 ar
  11       11       12 ar
  12       12       13 ar
  13       13       14 1
  14       14       15 am
  15       15       16 2
  16       15       17 1
  17       17       18 ar
  18       18       19 ar
  19       19       20 ar
  20       20       21 ar
  21       21       22 ar
  22       22       17 ar
  23       13       23 ar
  24       23        9 ar
  25       23       24 1
  26        6       25 1
  27       25       26 1
  28       25       27 am
  29       27       28 2
  30       27       29 am
  31       29       30 1
  32       30        5 1
  33       30       31 1
  34       31       32 ar
  35       32       33 ar
  36       33       34 ar
  37       34       35 ar
  38       35       36 ar
  39       36       31 ar
  40       30       37 1
  41        1       38 1
  42        1       39 1
  43        1       40 1
  44        7       41 1
  45        7       42 1
  46        8       43 1
  47       10       44 1
  48       11       45 1
  49       12       46 1
  50       14       47 1
  51       18       48 1
  52       19       49 1
  53       20       50 1
  54       21       51 1
  55       22       52 1
  56       24       53 1
  57       24       54 1
  58       24       55 1
  59       26       56 1
  60       26       57 1
  61       26       58 1
  62       29       59 1
  63       32       60 1
  64       33       61 1
  65       34       62 1
  66       35       63 1
  67       36       64 1

@<TRIPOS>MOLECULE

  64   67
SMALL
USER_CHARGES
@<TRIPOS>ATOM
   1 C1           1.2267     4.0525    -1.9235 C.3          1    LIG   0.0000
   2 O2           1.2790     3.8218    -0.5233 O.3          1    LIG   0.0000
   3 C3           2.3457     3.1937    -0.0947 C.2          1    LIG   0.0000
   4 O4           3.1955     2.8555    -0.8715 O.2          1    LIG   0.0000
   5 C5           2.4997     2.9070     1.3195 C.2          1    LIG   0.0000
   6 C6           1.8771     1.8771     1.8771 C.2          1    LIG   0.0000
   7 C7           1.0000     1.0000     1.0000 C.3          1    LIG   0.0000
   8 N8           1.5074    -0.3794     1.0233 N.pl3        1    LIG   0.0000
   9 C9           0.8586    -1.3766     0.2851 C.ar         1    LIG   0.0000
  10 C10          0.1959    -1.0396    -0.8906 C.ar         1    LIG   0.0000
  11 C11         -0.4458    -2.0371    -1.6172 C.ar         1    LIG   0.0000
  12 C12         -0.4329    -3.3593    -1.1851 C.ar         1    LIG   0.0000
  13 C13          0.2334    -3.6831    -0.0077 C.ar         1    LIG   0.0000
  14 N14          0.2389    -5.0176     0.4163 N.am         1    LIG   0.0000
  15 C15          1.4265    -5.6845     0.5642 C.2          1    LIG   0.0000
  16 O16          1.4312    -6.8281     0.9276 O.2          1    LIG   0.0000
  17 C17          2.6779    -5.0082     0.2816 C.ar         1    LIG   0.0000
  18 C18          3.8641    -5.5064     0.8103 C.ar         1    LIG   0.0000
  19 C19          5.0596    -4.8511     0.5347 C.ar         1    LIG   0.0000
  20 C20          5.0607    -3.7104    -0.2623 C.ar         1    LIG   0.0000
  21 C21          3.8698    -3.2193    -0.7872 C.ar         1    LIG   0.0000
  22 C22          2.6695    -3.8684    -0.5158 C.ar         1    LIG   0.0000
  23 C23          0.8793    -2.6949     0.7285 C.ar         1    LIG   0.0000
  24 C24          1.6055    -3.0571     2.0140 C.3          1    LIG   0.0000
  25 N25          1.9896     1.5657     3.2409 N.am         1    LIG   0.0000
  26 C26          1.2992     0.4032     3.8148 C.3          1    LIG   0.0000
  27 C27          2.7660     2.3761     4.0810 C.2          1    LIG   0.0000
  28 O28          2.8705     2.1367     5.2728 O.2          1    LIG   0.0000
  29 N29          3.4454     3.4881     3.5682 N.am         1    LIG   0.0000
  30 C30          3.3938     3.8318     2.1381 C.3          1    LIG   0.0000
  31 C31          3.0631     5.2977     1.9077 C.ar         1    LIG   0.0000
  32 C32          1.9708     5.8666     2.5543 C.ar         1    LIG   0.0000
  33 C33          1.6750     7.2082     2.3372 C.ar         1    LIG   0.0000
  34 C34          2.4682     7.9665     1.4813 C.ar         1    LIG   0.0000
  35 C35          3.5588     7.3893     0.8390 C.ar         1    LIG   0.0000
  36 C36          3.8612     6.0479     1.0501 C.ar         1    LIG   0.0000
  37 H            4.3214     3.6997     1.7886 H            1    LIG   0.0000
  38 H            0.3804     4.5344    -2.1505 H            1    LIG   0.0000
  39 H            2.0109     4.6083    -2.1992 H            1    LIG   0.0000
  40 H            1.2519     3.1774    -2.4067 H            1    LIG   0.0000
  41 H            0.0616     1.0159     1.3452 H            1    LIG   0.0000
  42 H            1.0159     1.3452     0.0616 H            1    LIG   0.0000
  43 H            2.3160    -0.6056     1.5664 H            1    LIG   0.0000
  44 H            0.1811    -0.0919    -1.2094 H            1    LIG   0.0000
  45 H           -0.9237    -1.8001    -2.4631 H            1    LIG   0.0000
  46 H           -0.8973    -4.0690    -1.7149 H            1    LIG   0.0000
  47 H           -0.6240    -5.4839     0.6112 H            1    LIG   0.0000
  48 H            3.8575    -6.3267     1.3822 H            1    LIG   0.0000
  49 H            5.9187    -5.1998     0.9094 H            1    LIG   0.0000
  50 H            5.9219    -3.2415    -0.4588 H            1    LIG   0.0000
  51 H            3.8763    -2.3995    -1.3597 H            1    LIG   0.0000
  52 H            1.8102    -3.5194    -0.8898 H            1    LIG   0.0000
  53 H            2.0100    -2.2335     2.4117 H            1    LIG   0.0000
  54 H            0.9569    -3.4562     2.6622 H            1    LIG   0.0000
  55 H            2.3271    -3.7197     1.8139 H            1    LIG   0.0000
  56 H            0.7909    -0.0710     3.0959 H            1    LIG   0.0000
  57 H            1.9715    -0.2201     4.2142 H            1    LIG   0.0000
  58 H            0.6651     0.7092     4.5250 H            1    LIG   0.0000
  59 H            3.9788     4.0627     4.1890 H            1    LIG   0.0000
  60 H            1.4044     5.3171     3.1685 H            1    LIG   0.0000
  61 H            0.8922     7.6281     2.7963 H            1    LIG   0.0000
  62 H            2.2530     8.9308     1.3272 H            1    LIG   0.0000
  63 H            4.1257     7.9389     0.2253 H            1    LIG   0.0000
  64 H            4.6436     5.6276     0.5905 H            1    LIG   0.0000
@<TRIPOS>BOND
   1        1        2 1
   2        2        3 1
   3        3        4 2
   4        3        5 1
   5        5        6 2
   6        6        7 1
   7        7        8 1
   8        8        9 1
   9        9       10 ar
  10       10       11 ar
  11       11       12 ar
  12       12       13 ar
  13       13       14 1
  14       14       15 am
  15       15       16 2
  16       15       17 1
  17       17       18 ar
  18       18       19 ar
  19       19       20 ar
  20       20       21 ar
  21       21       22 ar
  22       22       17 ar
  23       13       23 ar
  24       23        9 ar
  25       23       24 1
  26        6       25 1
  27       25       26 1
  28       25       27 am
  29       27       28 2
  30       27       29 am
  31       29       30 1
  32       30        5 1
  33       30       31 1
  34       31       32 ar
  35       32       33 ar
  36       33       34 ar
  37       34       35 ar
  38       35       36 ar
  39       36       31 ar
  40       30       37 1
  41        1       38 1
  42        1       39 1
  43        1       40 1
  44        7       41 1
  45        7       42 1
  46        8       43 1
  47       10       44 1
  48       11       45 1
  49       12       46 1
  50       14       47 1
  51       18       48 1
  52       19       49 1
  53       20       50 1
  54       21       51 1
  55       22       52 1
  56       24       53 1
  57       24       54 1
  58       24       55 1
  59       26       56 1
  60       26       57 1
  61       26       58 1
  62       29       59 1
  63       32       60 1
  64       33       61 1
  65       34       62 1
  66       35       63 1
  67       36       64 1

@<TRIPOS>MOLECULE

  64   67
SMALL
USER_CHARGES
@<TRIPOS>ATOM
   1 C1           1.2267     4.0525    -1.9235 C.3          1    LIG   0.0000
   2 O2           1.2790     3.8218    -0.5233 O.3          1    LIG   0.0000
   3 C3           2.3457     3.1937    -0.0947 C.2          1    LIG   0.0000
   4 O4           3.1955     2.8555    -0.8715 O.2          1    LIG   0.0000
   5 C5           2.4997     2.9070     1.3195 C.2          1    LIG   0.0000
   6 C6           1.8771     1.8771     1.8771 C.2          1    LIG   0.0000
   7 C7           1.0000     1.0000     1.0000 C.3          1    LIG   0.0000
   8 N8           1.5074    -0.3794     1.0233 N.pl3        1    LIG   0.0000
   9 C9           0.8586    -1.3766     0.2851 C.ar         1    LIG   0.0000
  10 C10         -0.4748    -1.6704     0.5510 C.ar         1    LIG   0.0000
  11 C11         -1.1110    -2.6627    -0.1876 C.ar         1    LIG   0.0000
  12 C12         -0.4341    -3.3602    -1.1828 C.ar         1    LIG   0.0000
  13 C13          0.8991    -3.0568    -1.4388 C.ar         1    LIG   0.0000
  14 N14          1.5690    -3.7662    -2.4431 N.am         1    LIG   0.0000
  15 C15          2.0970    -3.0994    -3.5170 C.2          1    LIG   0.0000
  16 O16          2.6712    -3.7073    -4.3777 O.2          1    LIG   0.0000
  17 C17          1.9621    -1.6586    -3.6138 C.ar         1    LIG   0.0000
  18 C18          2.8208    -0.9409    -4.4398 C.ar         1    LIG   0.0000
  19 C19          2.6847     0.4407    -4.5259 C.ar         1    LIG   0.0000
  20 C20          1.6976     1.0903    -3.7910 C.ar         1    LIG   0.0000
  21 C21          0.8430     0.3645    -2.9677 C.ar         1    LIG   0.0000
  22 C22          0.9728    -1.0176    -2.8753 C.ar         1    LIG   0.0000
  23 C23          1.5471    -2.0666    -0.7073 C.ar         1    LIG   0.0000
  24 C24          3.0042    -1.7407    -0.9935 C.3          1    LIG   0.0000
  25 N25          1.9896     1.5657     3.2409 N.am         1    LIG   0.0000
  26 C26          1.2992     0.4032     3.8148 C.3          1    LIG   0.0000
  27 C27          2.7660     2.3761     4.0810 C.2          1    LIG   0.0000
  28 O28          2.8705     2.1367     5.2728 O.2          1    LIG   0.0000
  29 N29          3.4454     3.4881     3.5682 N.am         1    LIG   0.0000
  30 C30          3.3938     3.8318     2.1381 C.3          1    LIG   0.0000
  31 C31          3.0631     5.2977     1.9077 C.ar         1    LIG   0.0000
  32 C32          1.9708     5.8666     2.5543 C.ar         1    LIG   0.0000
  33 C33          1.6750     7.2082     2.3372 C.ar         1    LIG   0.0000
  34 C34          2.4682     7.9665     1.4813 C.ar         1    LIG   0.0000
  35 C35          3.5588     7.3893     0.8390 C.ar         1    LIG   0.0000
  36 C36          3.8612     6.0479     1.0501 C.ar         1    LIG   0.0000
  37 H            4.3214     3.6997     1.7886 H            1    LIG   0.0000
  38 H            0.3804     4.5344    -2.1505 H            1    LIG   0.0000
  39 H            2.0109     4.6083    -2.1992 H            1    LIG   0.0000
  40 H            1.2519     3.1774    -2.4067 H            1    LIG   0.0000
  41 H            0.0616     1.0159     1.3452 H            1    LIG   0.0000
  42 H            1.0159     1.3452     0.0616 H            1    LIG   0.0000
  43 H            2.3160    -0.6056     1.5664 H            1    LIG   0.0000
  44 H           -0.9699    -1.1744     1.2644 H            1    LIG   0.0000
  45 H           -2.0694    -2.8778    -0.0003 H            1    LIG   0.0000
  46 H           -0.9006    -4.0718    -1.7082 H            1    LIG   0.0000
  47 H            1.6621    -4.7597    -2.3764 H            1    LIG   0.0000
  48 H            3.5283    -1.4129    -4.9658 H            1    LIG   0.0000
  49 H            3.2965     0.9673    -5.1162 H            1    LIG   0.0000
  50 H            1.6022     2.0837    -3.8551 H            1    LIG   0.0000
  51 H            0.1351     0.8363    -2.4422 H            1    LIG   0.0000
  52 H            0.3616    -1.5444    -2.2845 H            1    LIG   0.0000
  53 H            3.3090    -1.0111    -0.3814 H            1    LIG   0.0000
  54 H            3.5636    -2.5561    -0.8447 H            1    LIG   0.0000
  55 H            3.0984    -1.4405    -1.9427 H            1    LIG   0.0000
  56 H            0.7909    -0.0710     3.0959 H            1    LIG   0.0000
  57 H            1.9715    -0.2201     4.2142 H            1    LIG   0.0000
  58 H            0.6651     0.7092     4.5250 H            1    LIG   0.0000
  59 H            3.9788     4.0627     4.1890 H            1    LIG   0.0000
  60 H            1.4044     5.3171     3.1685 H            1    LIG   0.0000
  61 H            0.8922     7.6281     2.7963 H            1    LIG   0.0000
  62 H            2.2530     8.9308     1.3272 H            1    LIG   0.0000
  63 H            4.1257     7.9389     0.2253 H            1    LIG   0.0000
  64 H            4.6436     5.6276     0.5905 H            1    LIG   0.0000
@<TRIPOS>BOND
   1        1        2 1
   2        2        3 1
   3        3        4 2
   4        3        5 1
   5        5        6 2
   6        6        7 1
   7        7        8 1
   8        8        9 1
   9        9       10 ar
  10       10       11 ar
  11       11       12 ar
  12       12       13 ar
  13       13       14 1
  14       14       15 am
  15       15       16 2
  16       15       17 1
  17       17       18 ar
  18       18       19 ar
  19       19       20 ar
  20       20       21 ar
  21       21       22 ar
  22       22       17 ar
  23       13       23 ar
  24       23        9 ar
  25       23       24 1
  26        6       25 1
  27       25       26 1
  28       25       27 am
  29       27       28 2
  30       27       29 am
  31       29       30 1
  32       30        5 1
  33       30       31 1
  34       31       32 ar
  35       32       33 ar
  36       33       34 ar
  37       34       35 ar
  38       35       36 ar
  39       36       31 ar
  40       30       37 1
  41        1       38 1
  42        1       39 1
  43        1       40 1
  44        7       41 1
  45        7       42 1
  46        8       43 1
  47       10       44 1
  48       11       45 1
  49       12       46 1
  50       14       47 1
  51       18       48 1
  52       19       49 1
  53       20       50 1
  54       21       51 1
  55       22       52 1
  56       24       53 1
  57       24       54 1
  58       24       55 1
  59       26       56 1
  60       26       57 1
  61       26       58 1
  62       29       59 1
  63       32       60 1
  64       33       61 1
  65       34       62 1
  66       35       63 1
  67       36       64 1

@<TRIPOS>MOLECULE

  64   67
SMALL
USER_CHARGES
@<TRIPOS>ATOM
   1 C1           2.8084     2.8737    -2.3347 C.3          1    LIG   0.0000
   2 O2           3.0329     2.5146    -0.9794 O.3          1    LIG   0.0000
   3 C3           2.3457     3.1937    -0.0947 C.2          1    LIG   0.0000
   4 O4           1.5888     4.0530    -0.4538 O.2          1    LIG   0.0000
   5 C5           2.4997     2.9070     1.3195 C.2          1    LIG   0.0000
   6 C6           1.8771     1.8771     1.8771 C.2          1    LIG   0.0000
   7 C7           1.0000     1.0000     1.0000 C.3          1    LIG   0.0000
   8 N8           1.5074    -0.3794     1.0233 N.pl3        1    LIG   0.0000
   9 C9           0.8586    -1.3766     0.2851 C.ar         1    LIG   0.0000
  10 C10          0.3309    -2.4837     0.9415 C.ar         1    LIG   0.0000
  11 C11         -0.3120    -3.4692     0.1996 C.ar         1    LIG   0.0000
  12 C12         -0.4329    -3.3616    -1.1820 C.ar         1    LIG   0.0000
  13 C13          0.0992    -2.2494    -1.8263 C.ar         1    LIG   0.0000
  14 N14         -0.0291    -2.1531    -3.2173 N.am         1    LIG   0.0000
  15 C15         -0.0758    -3.2894    -3.9812 C.2          1    LIG   0.0000
  16 O16         -0.0068    -4.3673    -3.4583 O.2          1    LIG   0.0000
  17 C17         -0.2087    -3.1897    -5.4220 C.ar         1    LIG   0.0000
  18 C18          0.1552    -4.2671    -6.2229 C.ar         1    LIG   0.0000
  19 C19          0.0251    -4.1624    -7.6038 C.ar         1    LIG   0.0000
  20 C20         -0.4649    -2.9895    -8.1701 C.ar         1    LIG   0.0000
  21 C21         -0.8267    -1.9171    -7.3614 C.ar         1    LIG   0.0000
  22 C22         -0.6991    -2.0133    -5.9793 C.ar         1    LIG   0.0000
  23 C23          0.7447    -1.2566    -1.0960 C.ar         1    LIG   0.0000
  24 C24          1.3231    -0.0441    -1.8076 C.3          1    LIG   0.0000
  25 N25          1.9896     1.5657     3.2409 N.am         1    LIG   0.0000
  26 C26          1.2992     0.4032     3.8148 C.3          1    LIG   0.0000
  27 C27          2.7660     2.3761     4.0810 C.2          1    LIG   0.0000
  28 O28          2.8705     2.1367     5.2728 O.2          1    LIG   0.0000
  29 N29          3.4454     3.4881     3.5682 N.am         1    LIG   0.0000
  30 C30          3.3938     3.8318     2.1381 C.3          1    LIG   0.0000
  31 C31          3.0631     5.2977     1.9077 C.ar         1    LIG   0.0000
  32 C32          1.9708     5.8666     2.5543 C.ar         1    LIG   0.0000
  33 C33          1.6750     7.2082     2.3372 C.ar         1    LIG   0.0000
  34 C34          2.4682     7.9665     1.4813 C.ar         1    LIG   0.0000
  35 C35          3.5588     7.3893     0.8390 C.ar         1    LIG   0.0000
  36 C36          3.8612     6.0479     1.0501 C.ar         1    LIG   0.0000
  37 H            4.3214     3.6997     1.7886 H            1    LIG   0.0000
  38 H            3.3747     2.3028    -2.9291 H            1    LIG   0.0000
  39 H            1.8440     2.7361    -2.5607 H            1    LIG   0.0000
  40 H            3.0482     3.8352    -2.4690 H            1    LIG   0.0000
  41 H            0.0616     1.0159     1.3452 H            1    LIG   0.0000
  42 H            1.0159     1.3452     0.0616 H            1    LIG   0.0000
  43 H            2.3160    -0.6056     1.5664 H            1    LIG   0.0000
  44 H            0.4127    -2.5700     1.9344 H            1    LIG   0.0000
  45 H           -0.6930    -4.2672     0.6666 H            1    LIG   0.0000
  46 H           -0.8970    -4.0756    -1.7062 H            1    LIG   0.0000
  47 H           -0.0867    -1.2549    -3.6531 H            1    LIG   0.0000
  48 H            0.5066    -5.1076    -5.8105 H            1    LIG   0.0000
  49 H            0.2838    -4.9303    -8.1898 H            1    LIG   0.0000
  50 H           -0.5573    -2.9173    -9.1632 H            1    LIG   0.0000
  51 H           -1.1787    -1.0767    -7.7736 H            1    LIG   0.0000
  52 H           -0.9570    -1.2452    -5.3932 H            1    LIG   0.0000
  53 H            1.7479     0.5645    -1.1375 H            1    LIG   0.0000
  54 H            2.0106    -0.3427    -2.4696 H            1    LIG   0.0000
  55 H            0.5914     0.4434    -2.2840 H            1    LIG   0.0000
  56 H            0.7909    -0.0710     3.0959 H            1    LIG   0.0000
  57 H            1.9715    -0.2201     4.2142 H            1    LIG   0.0000
  58 H            0.6651     0.7092     4.5250 H            1    LIG   0.0000
  59 H            3.9788     4.0627     4.1890 H            1    LIG   0.0000
  60 H            1.4044     5.3171     3.1685 H            1    LIG   0.0000
  61 H            0.8922     7.6281     2.7963 H            1    LIG   0.0000
  62 H            2.2530     8.9308     1.3272 H            1    LIG   0.0000
  63 H            4.1257     7.9389     0.2253 H            1    LIG   0.0000
  64 H            4.6436     5.6276     0.5905 H            1    LIG   0.0000
@<TRIPOS>BOND
   1        1        2 1
   2        2        3 1
   3        3        4 2
   4        3        5 1
   5        5        6 2
   6        6        7 1
   7        7        8 1
   8        8        9 1
   9        9       10 ar
  10       10       11 ar
  11       11       12 ar
  12       12       13 ar
  13       13       14 1
  14       14       15 am
  15       15       16 2
  16       15       17 1
  17       17       18 ar
  18       18       19 ar
  19       19       20 ar
  20       20       21 ar
  21       21       22 ar
  22       22       17 ar
  23       13       23 ar
  24       23        9 ar
  25       23       24 1
  26        6       25 1
  27       25       26 1
  28       25       27 am
  29       27       28 2
  30       27       29 am
  31       29       30 1
  32       30        5 1
  33       30       31 1
  34       31       32 ar
  35       32       33 ar
  36       33       34 ar
  37       34       35 ar
  38       35       36 ar
  39       36       31 ar
  40       30       37 1
  41        1       38 1
  42        1       39 1
  43        1       40 1
  44        7       41 1
  45        7       42 1
  46        8       43 1
  47       10       44 1
  48       11       45 1
  49       12       46 1
  50       14       47 1
  51       18       48 1
  52       19       49 1
  53       20       50 1
  54       21       51 1
  55       22       52 1
  56       24       53 1
  57       24       54 1
  58       24       55 1
  59       26       56 1
  60       26       57 1
  61       26       58 1
  62       29       59 1
  63       32       60 1
  64       33       61 1
  65       34       62 1
  66       35       63 1
  67       36       64 1

