@<TRIPOS>MOLECULE
*****
 64 67 0 0 0
SMALL
USER_CHARGES

@<TRIPOS>ATOM
      1 C1          1.2267    4.0525   -1.9235 C.3     1  LIG1        0.0000
      2 O2          1.2790    3.8218   -0.5233 O.3     1  LIG1        0.0000
      3 C3          2.3457    3.1937   -0.0947 C.2     1  LIG1        0.0000
      4 O4          3.1955    2.8555   -0.8715 O.2     1  LIG1        0.0000
      5 C5          2.4997    2.9070    1.3195 C.2     1  LIG1        0.0000
      6 C6          1.8771    1.8771    1.8771 C.2     1  LIG1        0.0000
      7 C7          1.0000    1.0000    1.0000 C.3     1  LIG1        0.0000
      8 N8          1.5074   -0.3794    1.0233 N.pl3   1  LIG1        0.0000
      9 C9          0.8586   -1.3766    0.2851 C.3     1  LIG1        0.0000
     10 C10         0.1959   -1.0396   -0.8906 C.3     1  LIG1        0.0000
     11 C11        -0.4458   -2.0371   -1.6172 C.3     1  LIG1        0.0000
     12 C12        -0.4329   -3.3593   -1.1851 C.3     1  LIG1        0.0000
     13 C13         0.2334   -3.6831   -0.0077 C.3     1  LIG1        0.0000
     14 N14         0.2389   -5.0176    0.4163 N.am    1  LIG1        0.0000
     15 C15         1.4265   -5.6845    0.5642 C.2     1  LIG1        0.0000
     16 O16         1.4312   -6.8281    0.9276 O.2     1  LIG1        0.0000
     17 C17         2.6779   -5.0082    0.2816 C.3     1  LIG1        0.0000
     18 C18         3.8641   -5.5064    0.8103 C.3     1  LIG1        0.0000
     19 C19         5.0596   -4.8511    0.5347 C.3     1  LIG1        0.0000
     20 C20         5.0607   -3.7104   -0.2623 C.3     1  LIG1        0.0000
     21 C21         3.8698   -3.2193   -0.7872 C.3     1  LIG1        0.0000
     22 C22         2.6695   -3.8684   -0.5158 C.3     1  LIG1        0.0000
     23 C23         0.8793   -2.6949    0.7285 C.3     1  LIG1        0.0000
     24 C24         1.6055   -3.0571    2.0140 C.3     1  LIG1        0.0000
     25 N25         1.9896    1.5657    3.2409 N.am    1  LIG1        0.0000
     26 C26         1.2992    0.4032    3.8148 C.3     1  LIG1        0.0000
     27 C27         2.7660    2.3761    4.0810 C.2     1  LIG1        0.0000
     28 O28         2.8705    2.1367    5.2728 O.2     1  LIG1        0.0000
     29 N29         3.4454    3.4881    3.5682 N.am    1  LIG1        0.0000
     30 C30         3.3938    3.8318    2.1381 C.3     1  LIG1        0.0000
     31 C31         3.0631    5.2977    1.9077 C.3     1  LIG1        0.0000
     32 C32         1.9708    5.8666    2.5543 C.3     1  LIG1        0.0000
     33 C33         1.6750    7.2082    2.3372 C.3     1  LIG1        0.0000
     34 C34         2.4682    7.9665    1.4813 C.3     1  LIG1        0.0000
     35 C35         3.5588    7.3893    0.8390 C.3     1  LIG1        0.0000
     36 C36         3.8612    6.0479    1.0501 C.3     1  LIG1        0.0000
     37 H           4.3214    3.6997    1.7886 H       1  LIG1        0.0000
     38 H           0.3804    4.5344   -2.1505 H       1  LIG1        0.0000
     39 H           2.0109    4.6083   -2.1992 H       1  LIG1        0.0000
     40 H           1.2519    3.1774   -2.4067 H       1  LIG1        0.0000
     41 H           0.0616    1.0159    1.3452 H       1  LIG1        0.0000
     42 H           1.0159    1.3452    0.0616 H       1  LIG1        0.0000
     43 H           2.3160   -0.6056    1.5664 H       1  LIG1        0.0000
     44 H           0.1811   -0.0919   -1.2094 H       1  LIG1        0.0000
     45 H          -0.9237   -1.8001   -2.4631 H       1  LIG1        0.0000
     46 H          -0.8973   -4.0690   -1.7149 H       1  LIG1        0.0000
     47 H          -0.6240   -5.4839    0.6112 H       1  LIG1        0.0000
     48 H           3.8575   -6.3267    1.3822 H       1  LIG1        0.0000
     49 H           5.9187   -5.1998    0.9094 H       1  LIG1        0.0000
     50 H           5.9219   -3.2415   -0.4588 H       1  LIG1        0.0000
     51 H           3.8763   -2.3995   -1.3597 H       1  LIG1        0.0000
     52 H           1.8102   -3.5194   -0.8898 H       1  LIG1        0.0000
     53 H           2.0100   -2.2335    2.4117 H       1  LIG1        0.0000
     54 H           0.9569   -3.4562    2.6622 H       1  LIG1        0.0000
     55 H           2.3271   -3.7197    1.8139 H       1  LIG1        0.0000
     56 H           0.7909   -0.0710    3.0959 H       1  LIG1        0.0000
     57 H           1.9715   -0.2201    4.2142 H       1  LIG1        0.0000
     58 H           0.6651    0.7092    4.5250 H       1  LIG1        0.0000
     59 H           3.9788    4.0627    4.1890 H       1  LIG1        0.0000
     60 H           1.4044    5.3171    3.1685 H       1  LIG1        0.0000
     61 H           0.8922    7.6281    2.7963 H       1  LIG1        0.0000
     62 H           2.2530    8.9308    1.3272 H       1  LIG1        0.0000
     63 H           4.1257    7.9389    0.2253 H       1  LIG1        0.0000
     64 H           4.6436    5.6276    0.5905 H       1  LIG1        0.0000
@<TRIPOS>BOND
     1     1     2    1
     2     2     3    1
     3     3     4    2
     4     3     5    1
     5     5     6    2
     6     6     7    1
     7     7     8    1
     8     8     9    1
     9     9    10   ar
    10    10    11   ar
    11    11    12   ar
    12    12    13   ar
    13    13    14    1
    14    14    15   am
    15    15    16    2
    16    15    17    1
    17    17    18   ar
    18    18    19   ar
    19    19    20   ar
    20    20    21   ar
    21    21    22   ar
    22    22    17   ar
    23    13    23   ar
    24    23     9   ar
    25    23    24    1
    26     6    25    1
    27    25    26    1
    28    25    27   am
    29    27    28    2
    30    27    29   am
    31    29    30    1
    32    30     5    1
    33    30    31    1
    34    31    32   ar
    35    32    33   ar
    36    33    34   ar
    37    34    35   ar
    38    35    36   ar
    39    36    31   ar
    40    30    37    1
    41     1    38    1
    42     1    39    1
    43     1    40    1
    44     7    41    1
    45     7    42    1
    46     8    43    1
    47    10    44    1
    48    11    45    1
    49    12    46    1
    50    14    47    1
    51    18    48    1
    52    19    49    1
    53    20    50    1
    54    21    51    1
    55    22    52    1
    56    24    53    1
    57    24    54    1
    58    24    55    1
    59    26    56    1
    60    26    57    1
    61    26    58    1
    62    29    59    1
    63    32    60    1
    64    33    61    1
    65    34    62    1
    66    35    63    1
    67    36    64    1
