@<TRIPOS>MOLECULE
*****
 64 67 0 0 0
SMALL
USER_CHARGES

@<TRIPOS>ATOM
      1 C1         -1.9235    1.2267    4.0525 C.3     1  LIG1        0.0000
      2 O2         -0.5233    1.2790    3.8218 O.3     1  LIG1        0.0000
      3 C3         -0.0947    2.3457    3.1937 C.2     1  LIG1        0.0000
      4 O4         -0.8715    3.1955    2.8555 O.2     1  LIG1        0.0000
      5 C5          1.3195    2.4997    2.9070 C.2     1  LIG1        0.0000
      6 C6          1.8771    1.8771    1.8771 C.2     1  LIG1        0.0000
      7 C7          1.0000    1.0000    1.0000 C.3     1  LIG1        0.0000
      8 N8          1.5074   -0.3794    1.0233 N.pl3   1  LIG1        0.0000
      9 C9          1.0405   -1.2809    1.9875 C.3     1  LIG1        0.0000
     10 C10        -0.2519   -1.1473    2.4841 C.3     1  LIG1        0.0000
     11 C11        -0.7070   -2.0477    3.4418 C.3     1  LIG1        0.0000
     12 C12         0.1098   -3.0737    3.9059 C.3     1  LIG1        0.0000
     13 C13         1.4002   -3.1963    3.4012 C.3     1  LIG1        0.0000
     14 N14         2.2122   -4.2332    3.8767 N.am    1  LIG1        0.0000
     15 C15         2.0509   -4.6983    5.1552 C.2     1  LIG1        0.0000
     16 O16         1.2137   -4.2170    5.8675 O.2     1  LIG1        0.0000
     17 C17         2.8919   -5.7723    5.6476 C.3     1  LIG1        0.0000
     18 C18         3.0311   -5.9642    7.0183 C.3     1  LIG1        0.0000
     19 C19         3.8403   -6.9962    7.4817 C.3     1  LIG1        0.0000
     20 C20         4.4997   -7.8236    6.5778 C.3     1  LIG1        0.0000
     21 C21         4.3545   -7.6246    5.2087 C.3     1  LIG1        0.0000
     22 C22         3.5475   -6.5942    4.7367 C.3     1  LIG1        0.0000
     23 C23         1.8676   -2.3023    2.4430 C.3     1  LIG1        0.0000
     24 C24         3.2791   -2.4434    1.8962 C.3     1  LIG1        0.0000
     25 N25         3.2409    1.9896    1.5657 N.am    1  LIG1        0.0000
     26 C26         3.8148    1.2992    0.4032 C.3     1  LIG1        0.0000
     27 C27         4.0810    2.7660    2.3761 C.2     1  LIG1        0.0000
     28 O28         5.2728    2.8705    2.1367 O.2     1  LIG1        0.0000
     29 N29         3.5682    3.4454    3.4881 N.am    1  LIG1        0.0000
     30 C30         2.1381    3.3938    3.8318 C.3     1  LIG1        0.0000
     31 C31         1.9077    3.0631    5.2977 C.3     1  LIG1        0.0000
     32 C32         0.9025    3.7185    6.0012 C.3     1  LIG1        0.0000
     33 C33         0.6990    3.4103    7.3422 C.3     1  LIG1        0.0000
     34 C34         1.4963    2.4554    7.9659 C.3     1  LIG1        0.0000
     35 C35         2.4991    1.8047    7.2546 C.3     1  LIG1        0.0000
     36 C36         2.7097    2.1075    5.9131 C.3     1  LIG1        0.0000
     37 H           1.7886    4.3214    3.6997 H       1  LIG1        0.0000
     38 H          -2.1505    0.3804    4.5344 H       1  LIG1        0.0000
     39 H          -2.1992    2.0109    4.6083 H       1  LIG1        0.0000
     40 H          -2.4067    1.2519    3.1774 H       1  LIG1        0.0000
     41 H           0.0616    1.0159    1.3452 H       1  LIG1        0.0000
     42 H           1.0159    1.3452    0.0616 H       1  LIG1        0.0000
     43 H           2.1861   -0.6740    0.3505 H       1  LIG1        0.0000
     44 H          -0.8466   -0.4131    2.1566 H       1  LIG1        0.0000
     45 H          -1.6353   -1.9560    3.8021 H       1  LIG1        0.0000
     46 H          -0.2270   -3.7158    4.5945 H       1  LIG1        0.0000
     47 H           2.9099   -4.6343    3.2830 H       1  LIG1        0.0000
     48 H           2.5548   -5.3667    7.6633 H       1  LIG1        0.0000
     49 H           3.9482   -7.1436    8.4649 H       1  LIG1        0.0000
     50 H           5.0807   -8.5648    6.9140 H       1  LIG1        0.0000
     51 H           4.8302   -8.2224    4.5636 H       1  LIG1        0.0000
     52 H           3.4400   -6.4461    3.7536 H       1  LIG1        0.0000
     53 H           3.4489   -1.7243    1.2224 H       1  LIG1        0.0000
     54 H           3.9365   -2.3604    2.6452 H       1  LIG1        0.0000
     55 H           3.3803   -3.3383    1.4615 H       1  LIG1        0.0000
     56 H           3.0959    0.7909   -0.0710 H       1  LIG1        0.0000
     57 H           4.2142    1.9715   -0.2201 H       1  LIG1        0.0000
     58 H           4.5250    0.6651    0.7092 H       1  LIG1        0.0000
     59 H           4.1890    3.9788    4.0627 H       1  LIG1        0.0000
     60 H           0.3324    4.4037    5.5479 H       1  LIG1        0.0000
     61 H          -0.0204    3.8751    7.8583 H       1  LIG1        0.0000
     62 H           1.3476    2.2359    8.9302 H       1  LIG1        0.0000
     63 H           3.0689    1.1190    7.7076 H       1  LIG1        0.0000
     64 H           3.4296    1.6434    5.3970 H       1  LIG1        0.0000
@<TRIPOS>BOND
     1     1     2    1
     2     2     3    1
     3     3     4    2
     4     3     5    1
     5     5     6    2
     6     6     7    1
     7     7     8    1
     8     8     9    1
     9     9    10   ar
    10    10    11   ar
    11    11    12   ar
    12    12    13   ar
    13    13    14    1
    14    14    15   am
    15    15    16    2
    16    15    17    1
    17    17    18   ar
    18    18    19   ar
    19    19    20   ar
    20    20    21   ar
    21    21    22   ar
    22    22    17   ar
    23    13    23   ar
    24    23     9   ar
    25    23    24    1
    26     6    25    1
    27    25    26    1
    28    25    27   am
    29    27    28    2
    30    27    29   am
    31    29    30    1
    32    30     5    1
    33    30    31    1
    34    31    32   ar
    35    32    33   ar
    36    33    34   ar
    37    34    35   ar
    38    35    36   ar
    39    36    31   ar
    40    30    37    1
    41     1    38    1
    42     1    39    1
    43     1    40    1
    44     7    41    1
    45     7    42    1
    46     8    43    1
    47    10    44    1
    48    11    45    1
    49    12    46    1
    50    14    47    1
    51    18    48    1
    52    19    49    1
    53    20    50    1
    54    21    51    1
    55    22    52    1
    56    24    53    1
    57    24    54    1
    58    24    55    1
    59    26    56    1
    60    26    57    1
    61    26    58    1
    62    29    59    1
    63    32    60    1
    64    33    61    1
    65    34    62    1
    66    35    63    1
    67    36    64    1
