@<TRIPOS>MOLECULE
*****
 64 67 0 0 0
SMALL
USER_CHARGES

@<TRIPOS>ATOM
      1 C1          1.2267    4.0525   -1.9235 C.3     1  LIG1        0.0000
      2 O2          1.2790    3.8218   -0.5233 O.3     1  LIG1        0.0000
      3 C3          2.3457    3.1937   -0.0947 C.2     1  LIG1        0.0000
      4 O4          3.1955    2.8555   -0.8715 O.2     1  LIG1        0.0000
      5 C5          2.4997    2.9070    1.3195 C.2     1  LIG1        0.0000
      6 C6          1.8771    1.8771    1.8771 C.2     1  LIG1        0.0000
      7 C7          1.0000    1.0000    1.0000 C.3     1  LIG1        0.0000
      8 N8          1.5074   -0.3794    1.0233 N.pl3   1  LIG1        0.0000
      9 C9          0.8586   -1.3766    0.2851 C.3     1  LIG1        0.0000
     10 C10        -0.4748   -1.6704    0.5510 C.3     1  LIG1        0.0000
     11 C11        -1.1110   -2.6627   -0.1876 C.3     1  LIG1        0.0000
     12 C12        -0.4341   -3.3602   -1.1828 C.3     1  LIG1        0.0000
     13 C13         0.8991   -3.0568   -1.4388 C.3     1  LIG1        0.0000
     14 N14         1.5690   -3.7662   -2.4431 N.am    1  LIG1        0.0000
     15 C15         2.0970   -3.0994   -3.5170 C.2     1  LIG1        0.0000
     16 O16         2.6712   -3.7073   -4.3777 O.2     1  LIG1        0.0000
     17 C17         1.9621   -1.6586   -3.6138 C.3     1  LIG1        0.0000
     18 C18         2.8208   -0.9409   -4.4398 C.3     1  LIG1        0.0000
     19 C19         2.6847    0.4407   -4.5259 C.3     1  LIG1        0.0000
     20 C20         1.6976    1.0903   -3.7910 C.3     1  LIG1        0.0000
     21 C21         0.8430    0.3645   -2.9677 C.3     1  LIG1        0.0000
     22 C22         0.9728   -1.0176   -2.8753 C.3     1  LIG1        0.0000
     23 C23         1.5471   -2.0666   -0.7073 C.3     1  LIG1        0.0000
     24 C24         3.0042   -1.7407   -0.9935 C.3     1  LIG1        0.0000
     25 N25         1.9896    1.5657    3.2409 N.am    1  LIG1        0.0000
     26 C26         1.2992    0.4032    3.8148 C.3     1  LIG1        0.0000
     27 C27         2.7660    2.3761    4.0810 C.2     1  LIG1        0.0000
     28 O28         2.8705    2.1367    5.2728 O.2     1  LIG1        0.0000
     29 N29         3.4454    3.4881    3.5682 N.am    1  LIG1        0.0000
     30 C30         3.3938    3.8318    2.1381 C.3     1  LIG1        0.0000
     31 C31         3.0631    5.2977    1.9077 C.3     1  LIG1        0.0000
     32 C32         1.9708    5.8666    2.5543 C.3     1  LIG1        0.0000
     33 C33         1.6750    7.2082    2.3372 C.3     1  LIG1        0.0000
     34 C34         2.4682    7.9665    1.4813 C.3     1  LIG1        0.0000
     35 C35         3.5588    7.3893    0.8390 C.3     1  LIG1        0.0000
     36 C36         3.8612    6.0479    1.0501 C.3     1  LIG1        0.0000
     37 H           4.3214    3.6997    1.7886 H       1  LIG1        0.0000
     38 H           0.3804    4.5344   -2.1505 H       1  LIG1        0.0000
     39 H           2.0109    4.6083   -2.1992 H       1  LIG1        0.0000
     40 H           1.2519    3.1774   -2.4067 H       1  LIG1        0.0000
     41 H           0.0616    1.0159    1.3452 H       1  LIG1        0.0000
     42 H           1.0159    1.3452    0.0616 H       1  LIG1        0.0000
     43 H           2.3160   -0.6056    1.5664 H       1  LIG1        0.0000
     44 H          -0.9699   -1.1744    1.2644 H       1  LIG1        0.0000
     45 H          -2.0694   -2.8778   -0.0003 H       1  LIG1        0.0000
     46 H          -0.9006   -4.0718   -1.7082 H       1  LIG1        0.0000
     47 H           1.6621   -4.7597   -2.3764 H       1  LIG1        0.0000
     48 H           3.5283   -1.4129   -4.9658 H       1  LIG1        0.0000
     49 H           3.2965    0.9673   -5.1162 H       1  LIG1        0.0000
     50 H           1.6022    2.0837   -3.8551 H       1  LIG1        0.0000
     51 H           0.1351    0.8363   -2.4422 H       1  LIG1        0.0000
     52 H           0.3616   -1.5444   -2.2845 H       1  LIG1        0.0000
     53 H           3.3090   -1.0111   -0.3814 H       1  LIG1        0.0000
     54 H           3.5636   -2.5561   -0.8447 H       1  LIG1        0.0000
     55 H           3.0984   -1.4405   -1.9427 H       1  LIG1        0.0000
     56 H           0.7909   -0.0710    3.0959 H       1  LIG1        0.0000
     57 H           1.9715   -0.2201    4.2142 H       1  LIG1        0.0000
     58 H           0.6651    0.7092    4.5250 H       1  LIG1        0.0000
     59 H           3.9788    4.0627    4.1890 H       1  LIG1        0.0000
     60 H           1.4044    5.3171    3.1685 H       1  LIG1        0.0000
     61 H           0.8922    7.6281    2.7963 H       1  LIG1        0.0000
     62 H           2.2530    8.9308    1.3272 H       1  LIG1        0.0000
     63 H           4.1257    7.9389    0.2253 H       1  LIG1        0.0000
     64 H           4.6436    5.6276    0.5905 H       1  LIG1        0.0000
@<TRIPOS>BOND
     1     1     2    1
     2     2     3    1
     3     3     4    2
     4     3     5    1
     5     5     6    2
     6     6     7    1
     7     7     8    1
     8     8     9    1
     9     9    10   ar
    10    10    11   ar
    11    11    12   ar
    12    12    13   ar
    13    13    14    1
    14    14    15   am
    15    15    16    2
    16    15    17    1
    17    17    18   ar
    18    18    19   ar
    19    19    20   ar
    20    20    21   ar
    21    21    22   ar
    22    22    17   ar
    23    13    23   ar
    24    23     9   ar
    25    23    24    1
    26     6    25    1
    27    25    26    1
    28    25    27   am
    29    27    28    2
    30    27    29   am
    31    29    30    1
    32    30     5    1
    33    30    31    1
    34    31    32   ar
    35    32    33   ar
    36    33    34   ar
    37    34    35   ar
    38    35    36   ar
    39    36    31   ar
    40    30    37    1
    41     1    38    1
    42     1    39    1
    43     1    40    1
    44     7    41    1
    45     7    42    1
    46     8    43    1
    47    10    44    1
    48    11    45    1
    49    12    46    1
    50    14    47    1
    51    18    48    1
    52    19    49    1
    53    20    50    1
    54    21    51    1
    55    22    52    1
    56    24    53    1
    57    24    54    1
    58    24    55    1
    59    26    56    1
    60    26    57    1
    61    26    58    1
    62    29    59    1
    63    32    60    1
    64    33    61    1
    65    34    62    1
    66    35    63    1
    67    36    64    1
