@<TRIPOS>MOLECULE

  25   27
SMALL
USER_CHARGES
@<TRIPOS>ATOM
   1 O1           1.2733     1.2733    -0.3664 O.3          1    LIG   0.0000
   2 C2           1.0000     1.0000     1.0000 C.3          1    LIG   0.0000
   3 C3           1.8776     1.8776     1.8776 C.3          1    LIG   0.0000
   4 S4           1.5292     1.5292     3.6192 S.3          1    LIG   0.0000
   5 C5           2.6123     2.6123     4.4472 C.2          1    LIG   0.0000
   6 N6           3.4239     3.4239     3.8113 N.2          1    LIG   0.0000
   7 N7           4.1036     4.0981     4.7112 N.2          1    LIG   0.0000
   8 C8           3.6963     3.6942     5.8849 C.2          1    LIG   0.0000
   9 S9           4.0061     3.9969     7.5245 S.3          1    LIG   0.0000
  10 C10          2.8528     2.8580     8.0419 C.ar         1    LIG   0.0000
  11 C11          2.7199     2.7508     9.4123 C.ar         1    LIG   0.0000
  12 C12          1.7700     1.8339     9.8251 C.ar         1    LIG   0.0000
  13 C13          1.0649     1.1364     8.8435 C.ar         1    LIG   0.0000
  14 C14          1.2930     1.3342     7.4811 C.ar         1    LIG   0.0000
  15 C15          2.2318     2.2360     6.9742 C.ar         1    LIG   0.0000
  16 N16          2.7513     2.7466     5.8050 N.pl3        1    LIG   0.0000
  17 H            0.6959     0.6959    -0.9437 H            1    LIG   0.0000
  18 H            1.1925     0.0377     1.1925 H            1    LIG   0.0000
  19 H            0.0377     1.1925     1.1925 H            1    LIG   0.0000
  20 H            2.8398     1.6851     1.6851 H            1    LIG   0.0000
  21 H            1.6851     2.8398     1.6851 H            1    LIG   0.0000
  22 H            3.2652     3.2913    10.0531 H            1    LIG   0.0000
  23 H            1.5941     1.6757    10.7968 H            1    LIG   0.0000
  24 H            0.3725     0.4724     9.1259 H            1    LIG   0.0000
  25 H            0.7536     0.7997     6.8304 H            1    LIG   0.0000
@<TRIPOS>BOND
   1        1        2 1
   2        2        3 1
   3        3        4 1
   4        4        5 1
   5        5        6 2
   6        6        7 1
   7        7        8 2
   8        8        9 1
   9        9       10 1
  10       10       11 ar
  11       11       12 ar
  12       12       13 ar
  13       13       14 ar
  14       14       15 ar
  15       15       10 ar
  16       15       16 1
  17       16        5 1
  18       16        8 1
  19        1       17 1
  20        2       18 1
  21        2       19 1
  22        3       20 1
  23        3       21 1
  24       11       22 1
  25       12       23 1
  26       13       24 1
  27       14       25 1

@<TRIPOS>MOLECULE

  25   27
SMALL
USER_CHARGES
@<TRIPOS>ATOM
   1 O1           1.2733     1.2733    -0.3664 O.3          1    LIG   0.0000
   2 C2           1.0000     1.0000     1.0000 C.3          1    LIG   0.0000
   3 C3           1.8776     1.8776     1.8776 C.3          1    LIG   0.0000
   4 S4           1.5292     1.5292     3.6192 S.3          1    LIG   0.0000
   5 C5           2.6123     2.6123     4.4472 C.2          1    LIG   0.0000
   6 N6           2.2708     3.8338     4.7835 N.2          1    LIG   0.0000
   7 N7           3.3000     4.3873     5.3841 N.2          1    LIG   0.0000
   8 C8           4.2555     3.4968     5.4117 C.2          1    LIG   0.0000
   9 S9           5.8535     3.3462     5.9592 S.3          1    LIG   0.0000
  10 C10          5.9830     1.7420     5.4071 C.ar         1    LIG   0.0000
  11 C11          7.1989     1.1389     5.6619 C.ar         1    LIG   0.0000
  12 C12          7.2914    -0.1699     5.2236 C.ar         1    LIG   0.0000
  13 C13          6.1793    -0.7277     4.5915 C.ar         1    LIG   0.0000
  14 C14          4.9997    -0.0099     4.3905 C.ar         1    LIG   0.0000
  15 C15          4.8178     1.3141     4.7974 C.ar         1    LIG   0.0000
  16 N16          3.9004     2.3412     4.8322 N.pl3        1    LIG   0.0000
  17 H            0.6959     0.6959    -0.9437 H            1    LIG   0.0000
  18 H            1.1925     0.0377     1.1925 H            1    LIG   0.0000
  19 H            0.0377     1.1925     1.1925 H            1    LIG   0.0000
  20 H            2.8398     1.6851     1.6851 H            1    LIG   0.0000
  21 H            1.6851     2.8398     1.6851 H            1    LIG   0.0000
  22 H            7.9501     1.6092     6.1250 H            1    LIG   0.0000
  23 H            8.1292    -0.6998     5.3555 H            1    LIG   0.0000
  24 H            6.2295    -1.6738     4.2718 H            1    LIG   0.0000
  25 H            4.2410    -0.4697     3.9288 H            1    LIG   0.0000
@<TRIPOS>BOND
   1        1        2 1
   2        2        3 1
   3        3        4 1
   4        4        5 1
   5        5        6 2
   6        6        7 1
   7        7        8 2
   8        8        9 1
   9        9       10 1
  10       10       11 ar
  11       11       12 ar
  12       12       13 ar
  13       13       14 ar
  14       14       15 ar
  15       15       10 ar
  16       15       16 1
  17       16        5 1
  18       16        8 1
  19        1       17 1
  20        2       18 1
  21        2       19 1
  22        3       20 1
  23        3       21 1
  24       11       22 1
  25       12       23 1
  26       13       24 1
  27       14       25 1

@<TRIPOS>MOLECULE

  25   27
SMALL
USER_CHARGES
@<TRIPOS>ATOM
   1 O1           1.2733     1.2733    -0.3664 O.3          1    LIG   0.0000
   2 C2           1.0000     1.0000     1.0000 C.3          1    LIG   0.0000
   3 C3           1.8776     1.8776     1.8776 C.3          1    LIG   0.0000
   4 S4           1.5292     1.5292     3.6192 S.3          1    LIG   0.0000
   5 C5           2.6123     2.6123     4.4472 C.2          1    LIG   0.0000
   6 N6           3.8338     2.2708     4.7835 N.2          1    LIG   0.0000
   7 N7           4.3847     3.2974     5.3909 N.2          1    LIG   0.0000
   8 C8           3.4958     4.2545     5.4142 C.2          1    LIG   0.0000
   9 S9           3.3418     5.8491     5.9705 S.3          1    LIG   0.0000
  10 C10          1.7445     5.9855     5.4006 C.ar         1    LIG   0.0000
  11 C11          1.1536     7.2136     5.6235 C.ar         1    LIG   0.0000
  12 C12         -0.1395     7.3218     5.1441 C.ar         1    LIG   0.0000
  13 C13         -0.6936     6.2134     4.5025 C.ar         1    LIG   0.0000
  14 C14          0.0096     5.0192     4.3393 C.ar         1    LIG   0.0000
  15 C15          1.3161     4.8198     4.7921 C.ar         1    LIG   0.0000
  16 N16          2.3390     3.8982     4.8379 N.pl3        1    LIG   0.0000
  17 H            0.6959     0.6959    -0.9437 H            1    LIG   0.0000
  18 H            1.1925     0.0377     1.1925 H            1    LIG   0.0000
  19 H            0.0377     1.1925     1.1925 H            1    LIG   0.0000
  20 H            2.8398     1.6851     1.6851 H            1    LIG   0.0000
  21 H            1.6851     2.8398     1.6851 H            1    LIG   0.0000
  22 H            1.6216     7.9625     6.0926 H            1    LIG   0.0000
  23 H           -0.6610     8.1680     5.2540 H            1    LIG   0.0000
  24 H           -1.6263     6.2770     4.1475 H            1    LIG   0.0000
  25 H           -0.4477     4.2630     3.8714 H            1    LIG   0.0000
@<TRIPOS>BOND
   1        1        2 1
   2        2        3 1
   3        3        4 1
   4        4        5 1
   5        5        6 2
   6        6        7 1
   7        7        8 2
   8        8        9 1
   9        9       10 1
  10       10       11 ar
  11       11       12 ar
  12       12       13 ar
  13       13       14 ar
  14       14       15 ar
  15       15       10 ar
  16       15       16 1
  17       16        5 1
  18       16        8 1
  19        1       17 1
  20        2       18 1
  21        2       19 1
  22        3       20 1
  23        3       21 1
  24       11       22 1
  25       12       23 1
  26       13       24 1
  27       14       25 1

@<TRIPOS>MOLECULE

  25   27
SMALL
USER_CHARGES
@<TRIPOS>ATOM
   1 O1           1.2733     1.2733    -0.3664 O.3          1    LIG   0.0000
   2 C2           1.0000     1.0000     1.0000 C.3          1    LIG   0.0000
   3 C3           1.8776     1.8776     1.8776 C.3          1    LIG   0.0000
   4 S4           1.5292     1.5292     3.6192 S.3          1    LIG   0.0000
   5 C5           0.9937     3.0748     4.2160 C.2          1    LIG   0.0000
   6 N6           1.4200     4.2115     3.7182 N.2          1    LIG   0.0000
   7 N7           0.8363     5.1841     4.3813 N.2          1    LIG   0.0000
   8 C8           0.0575     4.6305     5.2722 C.2          1    LIG   0.0000
   9 S9          -1.0162     5.0915     6.5014 S.3          1    LIG   0.0000
  10 C10         -1.3752     3.4797     6.9113 C.ar         1    LIG   0.0000
  11 C11         -2.2928     3.3332     7.9329 C.ar         1    LIG   0.0000
  12 C12         -2.5908     2.0202     8.2505 C.ar         1    LIG   0.0000
  13 C13         -1.9546     1.0119     7.5254 C.ar         1    LIG   0.0000
  14 C14         -1.0389     1.2899     6.5098 C.ar         1    LIG   0.0000
  15 C15         -0.6769     2.5827     6.1237 C.ar         1    LIG   0.0000
  16 N16          0.1028     3.2911     5.2360 N.pl3        1    LIG   0.0000
  17 H            0.6959     0.6959    -0.9437 H            1    LIG   0.0000
  18 H            1.1925     0.0377     1.1925 H            1    LIG   0.0000
  19 H            0.0377     1.1925     1.1925 H            1    LIG   0.0000
  20 H            2.8398     1.6851     1.6851 H            1    LIG   0.0000
  21 H            1.6851     2.8398     1.6851 H            1    LIG   0.0000
  22 H           -2.7074     4.1117     8.4041 H            1    LIG   0.0000
  23 H           -3.2418     1.8005     8.9770 H            1    LIG   0.0000
  24 H           -2.1619     0.0576     7.7409 H            1    LIG   0.0000
  25 H           -0.6178     0.5196     6.0309 H            1    LIG   0.0000
@<TRIPOS>BOND
   1        1        2 1
   2        2        3 1
   3        3        4 1
   4        4        5 1
   5        5        6 2
   6        6        7 1
   7        7        8 2
   8        8        9 1
   9        9       10 1
  10       10       11 ar
  11       11       12 ar
  12       12       13 ar
  13       13       14 ar
  14       14       15 ar
  15       15       10 ar
  16       15       16 1
  17       16        5 1
  18       16        8 1
  19        1       17 1
  20        2       18 1
  21        2       19 1
  22        3       20 1
  23        3       21 1
  24       11       22 1
  25       12       23 1
  26       13       24 1
  27       14       25 1

@<TRIPOS>MOLECULE

  25   27
SMALL
USER_CHARGES
@<TRIPOS>ATOM
   1 O1           1.2733     1.2733    -0.3664 O.3          1    LIG   0.0000
   2 C2           1.0000     1.0000     1.0000 C.3          1    LIG   0.0000
   3 C3           1.8776     1.8776     1.8776 C.3          1    LIG   0.0000
   4 S4           1.5292     1.5292     3.6192 S.3          1    LIG   0.0000
   5 C5           0.9937     3.0748     4.2160 C.2          1    LIG   0.0000
   6 N6           0.1322     3.1937     5.1985 N.2          1    LIG   0.0000
   7 N7          -0.0655     4.4760     5.4060 N.2          1    LIG   0.0000
   8 C8           0.6805     5.1246     4.5517 C.2          1    LIG   0.0000
   9 S9           1.0401     6.7242     4.1182 S.3          1    LIG   0.0000
  10 C10          2.1249     6.2414     2.8996 C.ar         1    LIG   0.0000
  11 C11          2.7334     7.2797     2.2222 C.ar         1    LIG   0.0000
  12 C12          3.6251     6.8796     1.2433 C.ar         1    LIG   0.0000
  13 C13          3.8128     5.5103     1.0504 C.ar         1    LIG   0.0000
  14 C14          3.1327     4.5524     1.8035 C.ar         1    LIG   0.0000
  15 C15          2.2146     4.8644     2.8092 C.ar         1    LIG   0.0000
  16 N16          1.3827     4.3065     3.7550 N.pl3        1    LIG   0.0000
  17 H            0.6959     0.6959    -0.9437 H            1    LIG   0.0000
  18 H            1.1925     0.0377     1.1925 H            1    LIG   0.0000
  19 H            0.0377     1.1925     1.1925 H            1    LIG   0.0000
  20 H            2.8398     1.6851     1.6851 H            1    LIG   0.0000
  21 H            1.6851     2.8398     1.6851 H            1    LIG   0.0000
  22 H            2.5451     8.2411     2.4228 H            1    LIG   0.0000
  23 H            4.1198     7.5506     0.6910 H            1    LIG   0.0000
  24 H            4.4565     5.2051     0.3486 H            1    LIG   0.0000
  25 H            3.3129     3.5875     1.6124 H            1    LIG   0.0000
@<TRIPOS>BOND
   1        1        2 1
   2        2        3 1
   3        3        4 1
   4        4        5 1
   5        5        6 2
   6        6        7 1
   7        7        8 2
   8        8        9 1
   9        9       10 1
  10       10       11 ar
  11       11       12 ar
  12       12       13 ar
  13       13       14 ar
  14       14       15 ar
  15       15       10 ar
  16       15       16 1
  17       16        5 1
  18       16        8 1
  19        1       17 1
  20        2       18 1
  21        2       19 1
  22        3       20 1
  23        3       21 1
  24       11       22 1
  25       12       23 1
  26       13       24 1
  27       14       25 1

@<TRIPOS>MOLECULE

  25   27
SMALL
USER_CHARGES
@<TRIPOS>ATOM
   1 O1           1.2733     1.2733    -0.3664 O.3          1    LIG   0.0000
   2 C2           1.0000     1.0000     1.0000 C.3          1    LIG   0.0000
   3 C3           1.8776     1.8776     1.8776 C.3          1    LIG   0.0000
   4 S4           1.5292     1.5292     3.6192 S.3          1    LIG   0.0000
   5 C5           3.0748     0.9937     4.2160 C.2          1    LIG   0.0000
   6 N6           4.2115     1.4200     3.7182 N.2          1    LIG   0.0000
   7 N7           5.1841     0.8304     4.3762 N.2          1    LIG   0.0000
   8 C8           4.6305     0.0553     5.2703 C.2          1    LIG   0.0000
   9 S9           5.0914    -1.0259     6.4929 S.3          1    LIG   0.0000
  10 C10          3.4797    -1.3696     6.9162 C.ar         1    LIG   0.0000
  11 C11          3.3335    -2.2599     7.9617 C.ar         1    LIG   0.0000
  12 C12          2.0208    -2.5229     8.3099 C.ar         1    LIG   0.0000
  13 C13          1.0125    -1.8784     7.5921 C.ar         1    LIG   0.0000
  14 C14          1.2902    -0.9951     6.5481 C.ar         1    LIG   0.0000
  15 C15          2.5828    -0.6724     6.1276 C.ar         1    LIG   0.0000
  16 N16          3.2911     0.0979     5.2317 N.pl3        1    LIG   0.0000
  17 H            0.6959     0.6959    -0.9437 H            1    LIG   0.0000
  18 H            1.1925     0.0377     1.1925 H            1    LIG   0.0000
  19 H            0.0377     1.1925     1.1925 H            1    LIG   0.0000
  20 H            2.8398     1.6851     1.6851 H            1    LIG   0.0000
  21 H            1.6851     2.8398     1.6851 H            1    LIG   0.0000
  22 H            4.1120    -2.6797     8.4284 H            1    LIG   0.0000
  23 H            1.8012    -3.1551     9.0530 H            1    LIG   0.0000
  24 H            0.0585    -2.0556     7.8339 H            1    LIG   0.0000
  25 H            0.5200    -0.5686     6.0739 H            1    LIG   0.0000
@<TRIPOS>BOND
   1        1        2 1
   2        2        3 1
   3        3        4 1
   4        4        5 1
   5        5        6 2
   6        6        7 1
   7        7        8 2
   8        8        9 1
   9        9       10 1
  10       10       11 ar
  11       11       12 ar
  12       12       13 ar
  13       13       14 ar
  14       14       15 ar
  15       15       10 ar
  16       15       16 1
  17       16        5 1
  18       16        8 1
  19        1       17 1
  20        2       18 1
  21        2       19 1
  22        3       20 1
  23        3       21 1
  24       11       22 1
  25       12       23 1
  26       13       24 1
  27       14       25 1

@<TRIPOS>MOLECULE

  25   27
SMALL
USER_CHARGES
@<TRIPOS>ATOM
   1 O1           1.2733     1.2733    -0.3664 O.3          1    LIG   0.0000
   2 C2           1.0000     1.0000     1.0000 C.3          1    LIG   0.0000
   3 C3           1.8776     1.8776     1.8776 C.3          1    LIG   0.0000
   4 S4           1.5292     1.5292     3.6192 S.3          1    LIG   0.0000
   5 C5           3.0748     0.9937     4.2160 C.2          1    LIG   0.0000
   6 N6           3.1937     0.1322     5.1985 N.2          1    LIG   0.0000
   7 N7           4.4761    -0.0596     5.4111 N.2          1    LIG   0.0000
   8 C8           5.1246     0.6827     4.5536 C.2          1    LIG   0.0000
   9 S9           6.7242     1.0498     4.1267 S.3          1    LIG   0.0000
  10 C10          6.2414     2.1193     2.8946 C.ar         1    LIG   0.0000
  11 C11          7.2795     2.7006     2.1935 C.ar         1    LIG   0.0000
  12 C12          6.8790     3.5572     1.1838 C.ar         1    LIG   0.0000
  13 C13          5.5096     3.7366     0.9837 C.ar         1    LIG   0.0000
  14 C14          4.5521     3.0889     1.7651 C.ar         1    LIG   0.0000
  15 C15          4.8643     2.2101     2.8053 C.ar         1    LIG   0.0000
  16 N16          4.3065     1.3876     3.7593 N.pl3        1    LIG   0.0000
  17 H            0.6959     0.6959    -0.9437 H            1    LIG   0.0000
  18 H            1.1925     0.0377     1.1925 H            1    LIG   0.0000
  19 H            0.0377     1.1925     1.1925 H            1    LIG   0.0000
  20 H            2.8398     1.6851     1.6851 H            1    LIG   0.0000
  21 H            1.6851     2.8398     1.6851 H            1    LIG   0.0000
  22 H            8.2409     2.5174     2.3986 H            1    LIG   0.0000
  23 H            7.5499     4.0330     0.6150 H            1    LIG   0.0000
  24 H            5.2042     4.3503     0.2556 H            1    LIG   0.0000
  25 H            3.5871     3.2637     1.5694 H            1    LIG   0.0000
@<TRIPOS>BOND
   1        1        2 1
   2        2        3 1
   3        3        4 1
   4        4        5 1
   5        5        6 2
   6        6        7 1
   7        7        8 2
   8        8        9 1
   9        9       10 1
  10       10       11 ar
  11       11       12 ar
  12       12       13 ar
  13       13       14 ar
  14       14       15 ar
  15       15       10 ar
  16       15       16 1
  17       16        5 1
  18       16        8 1
  19        1       17 1
  20        2       18 1
  21        2       19 1
  22        3       20 1
  23        3       21 1
  24       11       22 1
  25       12       23 1
  26       13       24 1
  27       14       25 1

@<TRIPOS>MOLECULE

  25   27
SMALL
USER_CHARGES
@<TRIPOS>ATOM
   1 O1           1.2733     1.2733    -0.3664 O.3          1    LIG   0.0000
   2 C2           1.0000     1.0000     1.0000 C.3          1    LIG   0.0000
   3 C3           1.8776     1.8776     1.8776 C.3          1    LIG   0.0000
   4 S4           1.5292     1.5292     3.6192 S.3          1    LIG   0.0000
   5 C5          -0.0684     2.1898     3.8266 C.2          1    LIG   0.0000
   6 N6          -0.7261     2.7698     2.8505 N.2          1    LIG   0.0000
   7 N7          -1.8873     3.1602     3.3254 N.2          1    LIG   0.0000
   8 C8          -1.9270     2.8102     4.5835 C.2          1    LIG   0.0000
   9 S9          -2.9803     2.9063     5.9091 S.3          1    LIG   0.0000
  10 C10         -1.8921     2.1040     6.9421 C.ar         1    LIG   0.0000
  11 C11         -2.3501     1.9159     8.2313 C.ar         1    LIG   0.0000
  12 C12         -1.4661     1.2499     9.0611 C.ar         1    LIG   0.0000
  13 C13         -0.2425     0.8475     8.5242 C.ar         1    LIG   0.0000
  14 C14          0.1069     1.0995     7.1969 C.ar         1    LIG   0.0000
  15 C15         -0.7206     1.7658     6.2897 C.ar         1    LIG   0.0000
  16 N16         -0.8068     2.1912     4.9823 N.pl3        1    LIG   0.0000
  17 H            0.6959     0.6959    -0.9437 H            1    LIG   0.0000
  18 H            1.1925     0.0377     1.1925 H            1    LIG   0.0000
  19 H            0.0377     1.1925     1.1925 H            1    LIG   0.0000
  20 H            2.8398     1.6851     1.6851 H            1    LIG   0.0000
  21 H            1.6851     2.8398     1.6851 H            1    LIG   0.0000
  22 H           -3.2464     2.2347     8.5395 H            1    LIG   0.0000
  23 H           -1.6967     1.0626    10.0160 H            1    LIG   0.0000
  24 H            0.4061     0.3621     9.1105 H            1    LIG   0.0000
  25 H            1.0006     0.7852     6.8769 H            1    LIG   0.0000
@<TRIPOS>BOND
   1        1        2 1
   2        2        3 1
   3        3        4 1
   4        4        5 1
   5        5        6 2
   6        6        7 1
   7        7        8 2
   8        8        9 1
   9        9       10 1
  10       10       11 ar
  11       11       12 ar
  12       12       13 ar
  13       13       14 ar
  14       14       15 ar
  15       15       10 ar
  16       15       16 1
  17       16        5 1
  18       16        8 1
  19        1       17 1
  20        2       18 1
  21        2       19 1
  22        3       20 1
  23        3       21 1
  24       11       22 1
  25       12       23 1
  26       13       24 1
  27       14       25 1

@<TRIPOS>MOLECULE

  25   27
SMALL
USER_CHARGES
@<TRIPOS>ATOM
   1 O1           1.2733     1.2733    -0.3664 O.3          1    LIG   0.0000
   2 C2           1.0000     1.0000     1.0000 C.3          1    LIG   0.0000
   3 C3           1.8776     1.8776     1.8776 C.3          1    LIG   0.0000
   4 S4           1.5292     1.5292     3.6192 S.3          1    LIG   0.0000
   5 C5          -0.1459     1.0556     3.5842 C.2          1    LIG   0.0000
   6 N6          -0.5256    -0.1895     3.4196 N.2          1    LIG   0.0000
   7 N7          -1.8392    -0.2141     3.4360 N.2          1    LIG   0.0000
   8 C8          -2.2459     1.0145     3.6149 C.2          1    LIG   0.0000
   9 S9          -3.6991     1.8772     3.7549 S.3          1    LIG   0.0000
  10 C10         -2.8975     3.3645     3.9555 C.ar         1    LIG   0.0000
  11 C11         -3.7306     4.4507     4.1384 C.ar         1    LIG   0.0000
  12 C12         -3.0714     5.6539     4.3157 C.ar         1    LIG   0.0000
  13 C13         -1.6761     5.6440     4.2948 C.ar         1    LIG   0.0000
  14 C14         -0.9430     4.4731     4.0986 C.ar         1    LIG   0.0000
  15 C15         -1.5233     3.2165     3.9096 C.ar         1    LIG   0.0000
  16 N16         -1.2308     1.8845     3.7146 N.pl3        1    LIG   0.0000
  17 H            0.6959     0.6959    -0.9437 H            1    LIG   0.0000
  18 H            1.1925     0.0377     1.1925 H            1    LIG   0.0000
  19 H            0.0377     1.1925     1.1925 H            1    LIG   0.0000
  20 H            2.8398     1.6851     1.6851 H            1    LIG   0.0000
  21 H            1.6851     2.8398     1.6851 H            1    LIG   0.0000
  22 H           -4.7276     4.3738     4.1423 H            1    LIG   0.0000
  23 H           -3.5790     6.5042     4.4546 H            1    LIG   0.0000
  24 H           -1.1850     6.5054     4.4247 H            1    LIG   0.0000
  25 H            0.0550     4.5371     4.0930 H            1    LIG   0.0000
@<TRIPOS>BOND
   1        1        2 1
   2        2        3 1
   3        3        4 1
   4        4        5 1
   5        5        6 2
   6        6        7 1
   7        7        8 2
   8        8        9 1
   9        9       10 1
  10       10       11 ar
  11       11       12 ar
  12       12       13 ar
  13       13       14 ar
  14       14       15 ar
  15       15       10 ar
  16       15       16 1
  17       16        5 1
  18       16        8 1
  19        1       17 1
  20        2       18 1
  21        2       19 1
  22        3       20 1
  23        3       21 1
  24       11       22 1
  25       12       23 1
  26       13       24 1
  27       14       25 1

@<TRIPOS>MOLECULE

  25   27
SMALL
USER_CHARGES
@<TRIPOS>ATOM
   1 O1           1.2733     1.2733    -0.3664 O.3          1    LIG   0.0000
   2 C2           1.0000     1.0000     1.0000 C.3          1    LIG   0.0000
   3 C3           1.8776     1.8776     1.8776 C.3          1    LIG   0.0000
   4 S4           1.5292     1.5292     3.6192 S.3          1    LIG   0.0000
   5 C5          -0.1459     1.0556     3.5842 C.2          1    LIG   0.0000
   6 N6          -1.1272     1.9160     3.7204 N.2          1    LIG   0.0000
   7 N7          -2.2575     1.2496     3.6529 N.2          1    LIG   0.0000
   8 C8          -1.9538    -0.0081     3.4718 C.2          1    LIG   0.0000
   9 S9          -2.7338    -1.5022     3.2851 S.3          1    LIG   0.0000
  10 C10         -1.2653    -2.3477     3.1320 C.ar         1    LIG   0.0000
  11 C11         -1.3988    -3.7071     2.9289 C.ar         1    LIG   0.0000
  12 C12         -0.2012    -4.3854     2.7904 C.ar         1    LIG   0.0000
  13 C13          0.9805    -3.6469     2.8652 C.ar         1    LIG   0.0000
  14 C14          0.9842    -2.2677     3.0768 C.ar         1    LIG   0.0000
  15 C15         -0.1748    -1.5028     3.2294 C.ar         1    LIG   0.0000
  16 N16         -0.6305    -0.2169     3.4210 N.pl3        1    LIG   0.0000
  17 H            0.6959     0.6959    -0.9437 H            1    LIG   0.0000
  18 H            1.1925     0.0377     1.1925 H            1    LIG   0.0000
  19 H            0.0377     1.1925     1.1925 H            1    LIG   0.0000
  20 H            2.8398     1.6851     1.6851 H            1    LIG   0.0000
  21 H            1.6851     2.8398     1.6851 H            1    LIG   0.0000
  22 H           -2.2876    -4.1634     2.8855 H            1    LIG   0.0000
  23 H           -0.1828    -5.3740     2.6413 H            1    LIG   0.0000
  24 H            1.8544    -4.1224     2.7638 H            1    LIG   0.0000
  25 H            1.8670    -1.8000     3.1217 H            1    LIG   0.0000
@<TRIPOS>BOND
   1        1        2 1
   2        2        3 1
   3        3        4 1
   4        4        5 1
   5        5        6 2
   6        6        7 1
   7        7        8 2
   8        8        9 1
   9        9       10 1
  10       10       11 ar
  11       11       12 ar
  12       12       13 ar
  13       13       14 ar
  14       14       15 ar
  15       15       10 ar
  16       15       16 1
  17       16        5 1
  18       16        8 1
  19        1       17 1
  20        2       18 1
  21        2       19 1
  22        3       20 1
  23        3       21 1
  24       11       22 1
  25       12       23 1
  26       13       24 1
  27       14       25 1

@<TRIPOS>MOLECULE

  25   27
SMALL
USER_CHARGES
@<TRIPOS>ATOM
   1 O1           1.2733     1.2733    -0.3664 O.3          1    LIG   0.0000
   2 C2           1.0000     1.0000     1.0000 C.3          1    LIG   0.0000
   3 C3           1.8776     1.8776     1.8776 C.3          1    LIG   0.0000
   4 S4           1.5292     1.5292     3.6192 S.3          1    LIG   0.0000
   5 C5           2.1898    -0.0684     3.8266 C.2          1    LIG   0.0000
   6 N6           2.7698    -0.7261     2.8505 N.2          1    LIG   0.0000
   7 N7           3.1533    -1.8904     3.3234 N.2          1    LIG   0.0000
   8 C8           2.8077    -1.9282     4.5827 C.2          1    LIG   0.0000
   9 S9           2.8949    -2.9854     5.9058 S.3          1    LIG   0.0000
  10 C10          2.1106    -1.8891     6.9441 C.ar         1    LIG   0.0000
  11 C11          1.9544    -2.3327     8.2425 C.ar         1    LIG   0.0000
  12 C12          1.3294    -1.4302     9.0842 C.ar         1    LIG   0.0000
  13 C13          0.9367    -0.2022     8.5501 C.ar         1    LIG   0.0000
  14 C14          1.1509     0.1300     7.2118 C.ar         1    LIG   0.0000
  15 C15          1.7710    -0.7182     6.2912 C.ar         1    LIG   0.0000
  16 N16          2.1854    -0.8093     4.9806 N.pl3        1    LIG   0.0000
  17 H            0.6959     0.6959    -0.9437 H            1    LIG   0.0000
  18 H            1.1925     0.0377     1.1925 H            1    LIG   0.0000
  19 H            0.0377     1.1925     1.1925 H            1    LIG   0.0000
  20 H            2.8398     1.6851     1.6851 H            1    LIG   0.0000
  21 H            1.6851     2.8398     1.6851 H            1    LIG   0.0000
  22 H            2.2672    -3.2317     8.5489 H            1    LIG   0.0000
  23 H            1.1642    -1.6508    10.0455 H            1    LIG   0.0000
  24 H            0.4866     0.4622     9.1467 H            1    LIG   0.0000
  25 H            0.8428     1.0266     6.8936 H            1    LIG   0.0000
@<TRIPOS>BOND
   1        1        2 1
   2        2        3 1
   3        3        4 1
   4        4        5 1
   5        5        6 2
   6        6        7 1
   7        7        8 2
   8        8        9 1
   9        9       10 1
  10       10       11 ar
  11       11       12 ar
  12       12       13 ar
  13       13       14 ar
  14       14       15 ar
  15       15       10 ar
  16       15       16 1
  17       16        5 1
  18       16        8 1
  19        1       17 1
  20        2       18 1
  21        2       19 1
  22        3       20 1
  23        3       21 1
  24       11       22 1
  25       12       23 1
  26       13       24 1
  27       14       25 1

@<TRIPOS>MOLECULE

  25   27
SMALL
USER_CHARGES
@<TRIPOS>ATOM
   1 O1           1.2733     1.2733    -0.3664 O.3          1    LIG   0.0000
   2 C2           1.0000     1.0000     1.0000 C.3          1    LIG   0.0000
   3 C3           1.8776     1.8776     1.8776 C.3          1    LIG   0.0000
   4 S4           1.5292     1.5292     3.6192 S.3          1    LIG   0.0000
   5 C5           2.1898    -0.0684     3.8266 C.2          1    LIG   0.0000
   6 N6           1.4842    -1.1567     3.6281 N.2          1    LIG   0.0000
   7 N7           2.2614    -2.1884     3.8691 N.2          1    LIG   0.0000
   8 C8           3.4326    -1.7185     4.2070 C.2          1    LIG   0.0000
   9 S9           4.9611    -2.2920     4.6662 S.3          1    LIG   0.0000
  10 C10          5.5967    -0.7222     4.8295 C.ar         1    LIG   0.0000
  11 C11          6.9258    -0.6719     5.2009 C.ar         1    LIG   0.0000
  12 C12          7.4395     0.6072     5.3170 C.ar         1    LIG   0.0000
  13 C13          6.5875     1.6802     5.0521 C.ar         1    LIG   0.0000
  14 C14          5.2539     1.4984     4.6840 C.ar         1    LIG   0.0000
  15 C15          4.6511     0.2459     4.5444 C.ar         1    LIG   0.0000
  16 N16          3.4699    -0.3784     4.2088 N.pl3        1    LIG   0.0000
  17 H            0.6959     0.6959    -0.9437 H            1    LIG   0.0000
  18 H            1.1925     0.0377     1.1925 H            1    LIG   0.0000
  19 H            0.0377     1.1925     1.1925 H            1    LIG   0.0000
  20 H            2.8398     1.6851     1.6851 H            1    LIG   0.0000
  21 H            1.6851     2.8398     1.6851 H            1    LIG   0.0000
  22 H            7.4717    -1.4922     5.3716 H            1    LIG   0.0000
  23 H            8.3917     0.7583     5.5826 H            1    LIG   0.0000
  24 H            6.9449     2.6111     5.1286 H            1    LIG   0.0000
  25 H            4.6978     2.3112     4.5101 H            1    LIG   0.0000
@<TRIPOS>BOND
   1        1        2 1
   2        2        3 1
   3        3        4 1
   4        4        5 1
   5        5        6 2
   6        6        7 1
   7        7        8 2
   8        8        9 1
   9        9       10 1
  10       10       11 ar
  11       11       12 ar
  12       12       13 ar
  13       13       14 ar
  14       14       15 ar
  15       15       10 ar
  16       15       16 1
  17       16        5 1
  18       16        8 1
  19        1       17 1
  20        2       18 1
  21        2       19 1
  22        3       20 1
  23        3       21 1
  24       11       22 1
  25       12       23 1
  26       13       24 1
  27       14       25 1

@<TRIPOS>MOLECULE

  25   27
SMALL
USER_CHARGES
@<TRIPOS>ATOM
   1 O1           1.2733     1.2733    -0.3664 O.3          1    LIG   0.0000
   2 C2           1.0000     1.0000     1.0000 C.3          1    LIG   0.0000
   3 C3           1.8776     1.8776     1.8776 C.3          1    LIG   0.0000
   4 S4           2.2259     1.0192     3.4326 S.3          1    LIG   0.0000
   5 C5           3.2864    -0.2661     2.9277 C.2          1    LIG   0.0000
   6 N6           4.5911    -0.1324     2.8887 N.2          1    LIG   0.0000
   7 N7           5.0985    -1.2684     2.4661 N.2          1    LIG   0.0000
   8 C8           4.0990    -2.0832     2.2566 C.2          1    LIG   0.0000
   9 S9           3.8279    -3.6720     1.7294 S.3          1    LIG   0.0000
  10 C10          2.1406    -3.5317     1.8968 C.ar         1    LIG   0.0000
  11 C11          1.4305    -4.6716     1.5748 C.ar         1    LIG   0.0000
  12 C12          0.0607    -4.5547     1.7276 C.ar         1    LIG   0.0000
  13 C13         -0.4448    -3.3352     2.1801 C.ar         1    LIG   0.0000
  14 C14          0.3816    -2.2495     2.4727 C.ar         1    LIG   0.0000
  15 C15          1.7726    -2.2766     2.3459 C.ar         1    LIG   0.0000
  16 N16          2.9111    -1.5214     2.5222 N.pl3        1    LIG   0.0000
  17 H            0.6959     0.6959    -0.9437 H            1    LIG   0.0000
  18 H            1.1925     0.0377     1.1925 H            1    LIG   0.0000
  19 H            0.0377     1.1925     1.1925 H            1    LIG   0.0000
  20 H            2.7367     2.0700     1.4034 H            1    LIG   0.0000
  21 H            1.4034     2.7367     2.0700 H            1    LIG   0.0000
  22 H            1.8702    -5.5119     1.2575 H            1    LIG   0.0000
  23 H           -0.5484    -5.3202     1.5203 H            1    LIG   0.0000
  24 H           -1.4327    -3.2360     2.2988 H            1    LIG   0.0000
  25 H           -0.0463    -1.4037     2.7912 H            1    LIG   0.0000
@<TRIPOS>BOND
   1        1        2 1
   2        2        3 1
   3        3        4 1
   4        4        5 1
   5        5        6 2
   6        6        7 1
   7        7        8 2
   8        8        9 1
   9        9       10 1
  10       10       11 ar
  11       11       12 ar
  12       12       13 ar
  13       13       14 ar
  14       14       15 ar
  15       15       10 ar
  16       15       16 1
  17       16        5 1
  18       16        8 1
  19        1       17 1
  20        2       18 1
  21        2       19 1
  22        3       20 1
  23        3       21 1
  24       11       22 1
  25       12       23 1
  26       13       24 1
  27       14       25 1

@<TRIPOS>MOLECULE

  25   27
SMALL
USER_CHARGES
@<TRIPOS>ATOM
   1 O1           1.2733     1.2733    -0.3664 O.3          1    LIG   0.0000
   2 C2           1.0000     1.0000     1.0000 C.3          1    LIG   0.0000
   3 C3           1.8776     1.8776     1.8776 C.3          1    LIG   0.0000
   4 S4           1.0192     2.2259     3.4326 S.3          1    LIG   0.0000
   5 C5           0.6406     3.9191     3.2864 C.2          1    LIG   0.0000
   6 N6          -0.4776     4.3502     2.7522 N.2          1    LIG   0.0000
   7 N7          -0.4586     5.6636     2.7865 N.2          1    LIG   0.0000
   8 C8           0.6677     6.0187     3.3451 C.2          1    LIG   0.0000
   9 S9           1.4964     7.4346     3.7743 S.3          1    LIG   0.0000
  10 C10          2.8183     6.5718     4.4092 C.ar         1    LIG   0.0000
  11 C11          3.8235     7.3587     4.9360 C.ar         1    LIG   0.0000
  12 C12          4.8879     6.6500     5.4637 C.ar         1    LIG   0.0000
  13 C13          4.8347     5.2564     5.4126 C.ar         1    LIG   0.0000
  14 C14          3.7566     4.5729     4.8490 C.ar         1    LIG   0.0000
  15 C15          2.6423     5.2052     4.2921 C.ar         1    LIG   0.0000
  16 N16          1.4267     4.9684     3.6887 N.pl3        1    LIG   0.0000
  17 H            0.6959     0.6959    -0.9437 H            1    LIG   0.0000
  18 H            1.1925     0.0377     1.1925 H            1    LIG   0.0000
  19 H            0.0377     1.1925     1.1925 H            1    LIG   0.0000
  20 H            2.7367     1.4034     2.0700 H            1    LIG   0.0000
  21 H            2.0700     2.7367     1.4034 H            1    LIG   0.0000
  22 H            3.7852     8.3580     4.9359 H            1    LIG   0.0000
  23 H            5.6710     7.1215     5.8691 H            1    LIG   0.0000
  24 H            5.5950     4.7298     5.7929 H            1    LIG   0.0000
  25 H            3.7832     3.5732     4.8435 H            1    LIG   0.0000
@<TRIPOS>BOND
   1        1        2 1
   2        2        3 1
   3        3        4 1
   4        4        5 1
   5        5        6 2
   6        6        7 1
   7        7        8 2
   8        8        9 1
   9        9       10 1
  10       10       11 ar
  11       11       12 ar
  12       12       13 ar
  13       13       14 ar
  14       14       15 ar
  15       15       10 ar
  16       15       16 1
  17       16        5 1
  18       16        8 1
  19        1       17 1
  20        2       18 1
  21        2       19 1
  22        3       20 1
  23        3       21 1
  24       11       22 1
  25       12       23 1
  26       13       24 1
  27       14       25 1

