@<TRIPOS>MOLECULE
*****
 25 27 0 0 0
SMALL
USER_CHARGES

@<TRIPOS>ATOM
      1 O1          1.2733    1.2733   -0.3664 O.3     1  LIG1        0.0000
      2 C2          1.0000    1.0000    1.0000 C.3     1  LIG1        0.0000
      3 C3          1.8776    1.8776    1.8776 C.3     1  LIG1        0.0000
      4 S4          1.5292    1.5292    3.6192 S.3     1  LIG1        0.0000
      5 C5          2.1898   -0.0684    3.8266 C.2     1  LIG1        0.0000
      6 N6          1.4842   -1.1567    3.6281 N.2     1  LIG1        0.0000
      7 N7          2.2614   -2.1884    3.8691 N.2     1  LIG1        0.0000
      8 C8          3.4326   -1.7185    4.2070 C.2     1  LIG1        0.0000
      9 S9          4.9611   -2.2920    4.6662 S.3     1  LIG1        0.0000
     10 C10         5.5967   -0.7222    4.8295 C.ar    1  LIG1        0.0000
     11 C11         6.9258   -0.6719    5.2009 C.ar    1  LIG1        0.0000
     12 C12         7.4395    0.6072    5.3170 C.ar    1  LIG1        0.0000
     13 C13         6.5875    1.6802    5.0521 C.ar    1  LIG1        0.0000
     14 C14         5.2539    1.4984    4.6840 C.ar    1  LIG1        0.0000
     15 C15         4.6511    0.2459    4.5444 C.ar    1  LIG1        0.0000
     16 N16         3.4699   -0.3784    4.2088 N.pl3   1  LIG1        0.0000
     17 H           0.6959    0.6959   -0.9437 H       1  LIG1        0.0000
     18 H           1.1925    0.0377    1.1925 H       1  LIG1        0.0000
     19 H           0.0377    1.1925    1.1925 H       1  LIG1        0.0000
     20 H           2.8398    1.6851    1.6851 H       1  LIG1        0.0000
     21 H           1.6851    2.8398    1.6851 H       1  LIG1        0.0000
     22 H           7.4717   -1.4922    5.3716 H       1  LIG1        0.0000
     23 H           8.3917    0.7583    5.5826 H       1  LIG1        0.0000
     24 H           6.9449    2.6111    5.1286 H       1  LIG1        0.0000
     25 H           4.6978    2.3112    4.5101 H       1  LIG1        0.0000
@<TRIPOS>BOND
     1     1     2    1
     2     2     3    1
     3     3     4    1
     4     4     5    1
     5     5     6    2
     6     6     7    1
     7     7     8    2
     8     8     9    1
     9     9    10    1
    10    10    11   ar
    11    11    12   ar
    12    12    13   ar
    13    13    14   ar
    14    14    15   ar
    15    15    10   ar
    16    15    16    1
    17    16     5    1
    18    16     8    1
    19     1    17    1
    20     2    18    1
    21     2    19    1
    22     3    20    1
    23     3    21    1
    24    11    22    1
    25    12    23    1
    26    13    24    1
    27    14    25    1
