@<TRIPOS>MOLECULE
*****
 25 27 0 0 0
SMALL
USER_CHARGES

@<TRIPOS>ATOM
      1 O1          1.2733    1.2733   -0.3664 O.3     1  LIG1        0.0000
      2 C2          1.0000    1.0000    1.0000 C.3     1  LIG1        0.0000
      3 C3          1.8776    1.8776    1.8776 C.3     1  LIG1        0.0000
      4 S4          1.0192    2.2259    3.4326 S.3     1  LIG1        0.0000
      5 C5          0.6406    3.9191    3.2864 C.2     1  LIG1        0.0000
      6 N6         -0.4776    4.3502    2.7522 N.2     1  LIG1        0.0000
      7 N7         -0.4586    5.6636    2.7865 N.2     1  LIG1        0.0000
      8 C8          0.6677    6.0187    3.3451 C.2     1  LIG1        0.0000
      9 S9          1.4964    7.4346    3.7743 S.3     1  LIG1        0.0000
     10 C10         2.8183    6.5718    4.4092 C.ar    1  LIG1        0.0000
     11 C11         3.8235    7.3587    4.9360 C.ar    1  LIG1        0.0000
     12 C12         4.8879    6.6500    5.4637 C.ar    1  LIG1        0.0000
     13 C13         4.8347    5.2564    5.4126 C.ar    1  LIG1        0.0000
     14 C14         3.7566    4.5729    4.8490 C.ar    1  LIG1        0.0000
     15 C15         2.6423    5.2052    4.2921 C.ar    1  LIG1        0.0000
     16 N16         1.4267    4.9684    3.6887 N.pl3   1  LIG1        0.0000
     17 H           0.6959    0.6959   -0.9437 H       1  LIG1        0.0000
     18 H           1.1925    0.0377    1.1925 H       1  LIG1        0.0000
     19 H           0.0377    1.1925    1.1925 H       1  LIG1        0.0000
     20 H           2.7367    1.4034    2.0700 H       1  LIG1        0.0000
     21 H           2.0700    2.7367    1.4034 H       1  LIG1        0.0000
     22 H           3.7852    8.3580    4.9359 H       1  LIG1        0.0000
     23 H           5.6710    7.1215    5.8691 H       1  LIG1        0.0000
     24 H           5.5950    4.7298    5.7929 H       1  LIG1        0.0000
     25 H           3.7832    3.5732    4.8435 H       1  LIG1        0.0000
@<TRIPOS>BOND
     1     1     2    1
     2     2     3    1
     3     3     4    1
     4     4     5    1
     5     5     6    2
     6     6     7    1
     7     7     8    2
     8     8     9    1
     9     9    10    1
    10    10    11   ar
    11    11    12   ar
    12    12    13   ar
    13    13    14   ar
    14    14    15   ar
    15    15    10   ar
    16    15    16    1
    17    16     5    1
    18    16     8    1
    19     1    17    1
    20     2    18    1
    21     2    19    1
    22     3    20    1
    23     3    21    1
    24    11    22    1
    25    12    23    1
    26    13    24    1
    27    14    25    1
