@<TRIPOS>MOLECULE
*****
 25 27 0 0 0
SMALL
USER_CHARGES

@<TRIPOS>ATOM
      1 O1          1.2733    1.2733   -0.3664 O.3     1  LIG1        0.0000
      2 C2          1.0000    1.0000    1.0000 C.3     1  LIG1        0.0000
      3 C3          1.8776    1.8776    1.8776 C.3     1  LIG1        0.0000
      4 S4          1.5292    1.5292    3.6192 S.3     1  LIG1        0.0000
      5 C5         -0.0684    2.1898    3.8266 C.2     1  LIG1        0.0000
      6 N6         -0.7261    2.7698    2.8505 N.2     1  LIG1        0.0000
      7 N7         -1.8873    3.1602    3.3254 N.2     1  LIG1        0.0000
      8 C8         -1.9270    2.8102    4.5835 C.2     1  LIG1        0.0000
      9 S9         -2.9803    2.9063    5.9091 S.3     1  LIG1        0.0000
     10 C10        -1.8921    2.1040    6.9421 C.ar    1  LIG1        0.0000
     11 C11        -2.3501    1.9159    8.2313 C.ar    1  LIG1        0.0000
     12 C12        -1.4661    1.2499    9.0611 C.ar    1  LIG1        0.0000
     13 C13        -0.2425    0.8475    8.5242 C.ar    1  LIG1        0.0000
     14 C14         0.1069    1.0995    7.1969 C.ar    1  LIG1        0.0000
     15 C15        -0.7206    1.7658    6.2897 C.ar    1  LIG1        0.0000
     16 N16        -0.8068    2.1912    4.9823 N.pl3   1  LIG1        0.0000
     17 H           0.6959    0.6959   -0.9437 H       1  LIG1        0.0000
     18 H           1.1925    0.0377    1.1925 H       1  LIG1        0.0000
     19 H           0.0377    1.1925    1.1925 H       1  LIG1        0.0000
     20 H           2.8398    1.6851    1.6851 H       1  LIG1        0.0000
     21 H           1.6851    2.8398    1.6851 H       1  LIG1        0.0000
     22 H          -3.2464    2.2347    8.5395 H       1  LIG1        0.0000
     23 H          -1.6967    1.0626   10.0160 H       1  LIG1        0.0000
     24 H           0.4061    0.3621    9.1105 H       1  LIG1        0.0000
     25 H           1.0006    0.7852    6.8769 H       1  LIG1        0.0000
@<TRIPOS>BOND
     1     1     2    1
     2     2     3    1
     3     3     4    1
     4     4     5    1
     5     5     6    2
     6     6     7    1
     7     7     8    2
     8     8     9    1
     9     9    10    1
    10    10    11   ar
    11    11    12   ar
    12    12    13   ar
    13    13    14   ar
    14    14    15   ar
    15    15    10   ar
    16    15    16    1
    17    16     5    1
    18    16     8    1
    19     1    17    1
    20     2    18    1
    21     2    19    1
    22     3    20    1
    23     3    21    1
    24    11    22    1
    25    12    23    1
    26    13    24    1
    27    14    25    1
