@<TRIPOS>MOLECULE
*****
 25 27 0 0 0
SMALL
USER_CHARGES

@<TRIPOS>ATOM
      1 O1          1.2733    1.2733   -0.3664 O.3     1  LIG1        0.0000
      2 C2          1.0000    1.0000    1.0000 C.3     1  LIG1        0.0000
      3 C3          1.8776    1.8776    1.8776 C.3     1  LIG1        0.0000
      4 S4          1.5292    1.5292    3.6192 S.3     1  LIG1        0.0000
      5 C5          2.6123    2.6123    4.4472 C.2     1  LIG1        0.0000
      6 N6          3.4239    3.4239    3.8113 N.2     1  LIG1        0.0000
      7 N7          4.1036    4.0981    4.7112 N.2     1  LIG1        0.0000
      8 C8          3.6963    3.6942    5.8849 C.2     1  LIG1        0.0000
      9 S9          4.0061    3.9969    7.5245 S.3     1  LIG1        0.0000
     10 C10         2.8528    2.8580    8.0419 C.ar    1  LIG1        0.0000
     11 C11         2.7199    2.7508    9.4123 C.ar    1  LIG1        0.0000
     12 C12         1.7700    1.8339    9.8251 C.ar    1  LIG1        0.0000
     13 C13         1.0649    1.1364    8.8435 C.ar    1  LIG1        0.0000
     14 C14         1.2930    1.3342    7.4811 C.ar    1  LIG1        0.0000
     15 C15         2.2318    2.2360    6.9742 C.ar    1  LIG1        0.0000
     16 N16         2.7513    2.7466    5.8050 N.pl3   1  LIG1        0.0000
     17 H           0.6959    0.6959   -0.9437 H       1  LIG1        0.0000
     18 H           1.1925    0.0377    1.1925 H       1  LIG1        0.0000
     19 H           0.0377    1.1925    1.1925 H       1  LIG1        0.0000
     20 H           2.8398    1.6851    1.6851 H       1  LIG1        0.0000
     21 H           1.6851    2.8398    1.6851 H       1  LIG1        0.0000
     22 H           3.2652    3.2913   10.0531 H       1  LIG1        0.0000
     23 H           1.5941    1.6757   10.7968 H       1  LIG1        0.0000
     24 H           0.3725    0.4724    9.1259 H       1  LIG1        0.0000
     25 H           0.7536    0.7997    6.8304 H       1  LIG1        0.0000
@<TRIPOS>BOND
     1     1     2    1
     2     2     3    1
     3     3     4    1
     4     4     5    1
     5     5     6    2
     6     6     7    1
     7     7     8    2
     8     8     9    1
     9     9    10    1
    10    10    11   ar
    11    11    12   ar
    12    12    13   ar
    13    13    14   ar
    14    14    15   ar
    15    15    10   ar
    16    15    16    1
    17    16     5    1
    18    16     8    1
    19     1    17    1
    20     2    18    1
    21     2    19    1
    22     3    20    1
    23     3    21    1
    24    11    22    1
    25    12    23    1
    26    13    24    1
    27    14    25    1
