@<TRIPOS>MOLECULE
*****
 25 27 0 0 0
SMALL
USER_CHARGES

@<TRIPOS>ATOM
      1 O1          1.2733    1.2733   -0.3664 O.3     1  LIG1        0.0000
      2 C2          1.0000    1.0000    1.0000 C.3     1  LIG1        0.0000
      3 C3          1.8776    1.8776    1.8776 C.3     1  LIG1        0.0000
      4 S4          1.5292    1.5292    3.6192 S.3     1  LIG1        0.0000
      5 C5         -0.1459    1.0556    3.5842 C.2     1  LIG1        0.0000
      6 N6         -0.5256   -0.1895    3.4196 N.2     1  LIG1        0.0000
      7 N7         -1.8392   -0.2141    3.4360 N.2     1  LIG1        0.0000
      8 C8         -2.2459    1.0145    3.6149 C.2     1  LIG1        0.0000
      9 S9         -3.6991    1.8772    3.7549 S.3     1  LIG1        0.0000
     10 C10        -2.8975    3.3645    3.9555 C.ar    1  LIG1        0.0000
     11 C11        -3.7306    4.4507    4.1384 C.ar    1  LIG1        0.0000
     12 C12        -3.0714    5.6539    4.3157 C.ar    1  LIG1        0.0000
     13 C13        -1.6761    5.6440    4.2948 C.ar    1  LIG1        0.0000
     14 C14        -0.9430    4.4731    4.0986 C.ar    1  LIG1        0.0000
     15 C15        -1.5233    3.2165    3.9096 C.ar    1  LIG1        0.0000
     16 N16        -1.2308    1.8845    3.7146 N.pl3   1  LIG1        0.0000
     17 H           0.6959    0.6959   -0.9437 H       1  LIG1        0.0000
     18 H           1.1925    0.0377    1.1925 H       1  LIG1        0.0000
     19 H           0.0377    1.1925    1.1925 H       1  LIG1        0.0000
     20 H           2.8398    1.6851    1.6851 H       1  LIG1        0.0000
     21 H           1.6851    2.8398    1.6851 H       1  LIG1        0.0000
     22 H          -4.7276    4.3738    4.1423 H       1  LIG1        0.0000
     23 H          -3.5790    6.5042    4.4546 H       1  LIG1        0.0000
     24 H          -1.1850    6.5054    4.4247 H       1  LIG1        0.0000
     25 H           0.0550    4.5371    4.0930 H       1  LIG1        0.0000
@<TRIPOS>BOND
     1     1     2    1
     2     2     3    1
     3     3     4    1
     4     4     5    1
     5     5     6    2
     6     6     7    1
     7     7     8    2
     8     8     9    1
     9     9    10    1
    10    10    11   ar
    11    11    12   ar
    12    12    13   ar
    13    13    14   ar
    14    14    15   ar
    15    15    10   ar
    16    15    16    1
    17    16     5    1
    18    16     8    1
    19     1    17    1
    20     2    18    1
    21     2    19    1
    22     3    20    1
    23     3    21    1
    24    11    22    1
    25    12    23    1
    26    13    24    1
    27    14    25    1
