@<TRIPOS>MOLECULE
*****
 25 27 0 0 0
SMALL
USER_CHARGES

@<TRIPOS>ATOM
      1 O1          1.2733    1.2733   -0.3664 O.3     1  LIG1        0.0000
      2 C2          1.0000    1.0000    1.0000 C.3     1  LIG1        0.0000
      3 C3          1.8776    1.8776    1.8776 C.3     1  LIG1        0.0000
      4 S4          1.5292    1.5292    3.6192 S.3     1  LIG1        0.0000
      5 C5          2.6123    2.6123    4.4472 C.2     1  LIG1        0.0000
      6 N6          2.2708    3.8338    4.7835 N.2     1  LIG1        0.0000
      7 N7          3.3000    4.3873    5.3841 N.2     1  LIG1        0.0000
      8 C8          4.2555    3.4968    5.4117 C.2     1  LIG1        0.0000
      9 S9          5.8535    3.3462    5.9592 S.3     1  LIG1        0.0000
     10 C10         5.9830    1.7420    5.4071 C.ar    1  LIG1        0.0000
     11 C11         7.1989    1.1389    5.6619 C.ar    1  LIG1        0.0000
     12 C12         7.2914   -0.1699    5.2236 C.ar    1  LIG1        0.0000
     13 C13         6.1793   -0.7277    4.5915 C.ar    1  LIG1        0.0000
     14 C14         4.9997   -0.0099    4.3905 C.ar    1  LIG1        0.0000
     15 C15         4.8178    1.3141    4.7974 C.ar    1  LIG1        0.0000
     16 N16         3.9004    2.3412    4.8322 N.pl3   1  LIG1        0.0000
     17 H           0.6959    0.6959   -0.9437 H       1  LIG1        0.0000
     18 H           1.1925    0.0377    1.1925 H       1  LIG1        0.0000
     19 H           0.0377    1.1925    1.1925 H       1  LIG1        0.0000
     20 H           2.8398    1.6851    1.6851 H       1  LIG1        0.0000
     21 H           1.6851    2.8398    1.6851 H       1  LIG1        0.0000
     22 H           7.9501    1.6092    6.1250 H       1  LIG1        0.0000
     23 H           8.1292   -0.6998    5.3555 H       1  LIG1        0.0000
     24 H           6.2295   -1.6738    4.2718 H       1  LIG1        0.0000
     25 H           4.2410   -0.4697    3.9288 H       1  LIG1        0.0000
@<TRIPOS>BOND
     1     1     2    1
     2     2     3    1
     3     3     4    1
     4     4     5    1
     5     5     6    2
     6     6     7    1
     7     7     8    2
     8     8     9    1
     9     9    10    1
    10    10    11   ar
    11    11    12   ar
    12    12    13   ar
    13    13    14   ar
    14    14    15   ar
    15    15    10   ar
    16    15    16    1
    17    16     5    1
    18    16     8    1
    19     1    17    1
    20     2    18    1
    21     2    19    1
    22     3    20    1
    23     3    21    1
    24    11    22    1
    25    12    23    1
    26    13    24    1
    27    14    25    1
