@<TRIPOS>MOLECULE
*****
 25 27 0 0 0
SMALL
USER_CHARGES

@<TRIPOS>ATOM
      1 O1          1.2733    1.2733   -0.3664 O.3     1  LIG1        0.0000
      2 C2          1.0000    1.0000    1.0000 C.3     1  LIG1        0.0000
      3 C3          1.8776    1.8776    1.8776 C.3     1  LIG1        0.0000
      4 S4          1.5292    1.5292    3.6192 S.3     1  LIG1        0.0000
      5 C5          0.9937    3.0748    4.2160 C.2     1  LIG1        0.0000
      6 N6          0.1322    3.1937    5.1985 N.2     1  LIG1        0.0000
      7 N7         -0.0655    4.4760    5.4060 N.2     1  LIG1        0.0000
      8 C8          0.6805    5.1246    4.5517 C.2     1  LIG1        0.0000
      9 S9          1.0401    6.7242    4.1182 S.3     1  LIG1        0.0000
     10 C10         2.1249    6.2414    2.8996 C.ar    1  LIG1        0.0000
     11 C11         2.7334    7.2797    2.2222 C.ar    1  LIG1        0.0000
     12 C12         3.6251    6.8796    1.2433 C.ar    1  LIG1        0.0000
     13 C13         3.8128    5.5103    1.0504 C.ar    1  LIG1        0.0000
     14 C14         3.1327    4.5524    1.8035 C.ar    1  LIG1        0.0000
     15 C15         2.2146    4.8644    2.8092 C.ar    1  LIG1        0.0000
     16 N16         1.3827    4.3065    3.7550 N.pl3   1  LIG1        0.0000
     17 H           0.6959    0.6959   -0.9437 H       1  LIG1        0.0000
     18 H           1.1925    0.0377    1.1925 H       1  LIG1        0.0000
     19 H           0.0377    1.1925    1.1925 H       1  LIG1        0.0000
     20 H           2.8398    1.6851    1.6851 H       1  LIG1        0.0000
     21 H           1.6851    2.8398    1.6851 H       1  LIG1        0.0000
     22 H           2.5451    8.2411    2.4228 H       1  LIG1        0.0000
     23 H           4.1198    7.5506    0.6910 H       1  LIG1        0.0000
     24 H           4.4565    5.2051    0.3486 H       1  LIG1        0.0000
     25 H           3.3129    3.5875    1.6124 H       1  LIG1        0.0000
@<TRIPOS>BOND
     1     1     2    1
     2     2     3    1
     3     3     4    1
     4     4     5    1
     5     5     6    2
     6     6     7    1
     7     7     8    2
     8     8     9    1
     9     9    10    1
    10    10    11   ar
    11    11    12   ar
    12    12    13   ar
    13    13    14   ar
    14    14    15   ar
    15    15    10   ar
    16    15    16    1
    17    16     5    1
    18    16     8    1
    19     1    17    1
    20     2    18    1
    21     2    19    1
    22     3    20    1
    23     3    21    1
    24    11    22    1
    25    12    23    1
    26    13    24    1
    27    14    25    1
