@<TRIPOS>MOLECULE
*****
 25 27 0 0 0
SMALL
USER_CHARGES

@<TRIPOS>ATOM
      1 O1          1.2733    1.2733   -0.3664 O.3     1  LIG1        0.0000
      2 C2          1.0000    1.0000    1.0000 C.3     1  LIG1        0.0000
      3 C3          1.8776    1.8776    1.8776 C.3     1  LIG1        0.0000
      4 S4          1.5292    1.5292    3.6192 S.3     1  LIG1        0.0000
      5 C5         -0.1459    1.0556    3.5842 C.2     1  LIG1        0.0000
      6 N6         -1.1272    1.9160    3.7204 N.2     1  LIG1        0.0000
      7 N7         -2.2575    1.2496    3.6529 N.2     1  LIG1        0.0000
      8 C8         -1.9538   -0.0081    3.4718 C.2     1  LIG1        0.0000
      9 S9         -2.7338   -1.5022    3.2851 S.3     1  LIG1        0.0000
     10 C10        -1.2653   -2.3477    3.1320 C.ar    1  LIG1        0.0000
     11 C11        -1.3988   -3.7071    2.9289 C.ar    1  LIG1        0.0000
     12 C12        -0.2012   -4.3854    2.7904 C.ar    1  LIG1        0.0000
     13 C13         0.9805   -3.6469    2.8652 C.ar    1  LIG1        0.0000
     14 C14         0.9842   -2.2677    3.0768 C.ar    1  LIG1        0.0000
     15 C15        -0.1748   -1.5028    3.2294 C.ar    1  LIG1        0.0000
     16 N16        -0.6305   -0.2169    3.4210 N.pl3   1  LIG1        0.0000
     17 H           0.6959    0.6959   -0.9437 H       1  LIG1        0.0000
     18 H           1.1925    0.0377    1.1925 H       1  LIG1        0.0000
     19 H           0.0377    1.1925    1.1925 H       1  LIG1        0.0000
     20 H           2.8398    1.6851    1.6851 H       1  LIG1        0.0000
     21 H           1.6851    2.8398    1.6851 H       1  LIG1        0.0000
     22 H          -2.2876   -4.1634    2.8855 H       1  LIG1        0.0000
     23 H          -0.1828   -5.3740    2.6413 H       1  LIG1        0.0000
     24 H           1.8544   -4.1224    2.7638 H       1  LIG1        0.0000
     25 H           1.8670   -1.8000    3.1217 H       1  LIG1        0.0000
@<TRIPOS>BOND
     1     1     2    1
     2     2     3    1
     3     3     4    1
     4     4     5    1
     5     5     6    2
     6     6     7    1
     7     7     8    2
     8     8     9    1
     9     9    10    1
    10    10    11   ar
    11    11    12   ar
    12    12    13   ar
    13    13    14   ar
    14    14    15   ar
    15    15    10   ar
    16    15    16    1
    17    16     5    1
    18    16     8    1
    19     1    17    1
    20     2    18    1
    21     2    19    1
    22     3    20    1
    23     3    21    1
    24    11    22    1
    25    12    23    1
    26    13    24    1
    27    14    25    1
