@<TRIPOS>MOLECULE
*****
 25 27 0 0 0
SMALL
USER_CHARGES

@<TRIPOS>ATOM
      1 O1          1.2733    1.2733   -0.3664 O.3     1  LIG1        0.0000
      2 C2          1.0000    1.0000    1.0000 C.3     1  LIG1        0.0000
      3 C3          1.8776    1.8776    1.8776 C.3     1  LIG1        0.0000
      4 S4          1.5292    1.5292    3.6192 S.3     1  LIG1        0.0000
      5 C5          3.0748    0.9937    4.2160 C.2     1  LIG1        0.0000
      6 N6          3.1937    0.1322    5.1985 N.2     1  LIG1        0.0000
      7 N7          4.4761   -0.0596    5.4111 N.2     1  LIG1        0.0000
      8 C8          5.1246    0.6827    4.5536 C.2     1  LIG1        0.0000
      9 S9          6.7242    1.0498    4.1267 S.3     1  LIG1        0.0000
     10 C10         6.2414    2.1193    2.8946 C.ar    1  LIG1        0.0000
     11 C11         7.2795    2.7006    2.1935 C.ar    1  LIG1        0.0000
     12 C12         6.8790    3.5572    1.1838 C.ar    1  LIG1        0.0000
     13 C13         5.5096    3.7366    0.9837 C.ar    1  LIG1        0.0000
     14 C14         4.5521    3.0889    1.7651 C.ar    1  LIG1        0.0000
     15 C15         4.8643    2.2101    2.8053 C.ar    1  LIG1        0.0000
     16 N16         4.3065    1.3876    3.7593 N.pl3   1  LIG1        0.0000
     17 H           0.6959    0.6959   -0.9437 H       1  LIG1        0.0000
     18 H           1.1925    0.0377    1.1925 H       1  LIG1        0.0000
     19 H           0.0377    1.1925    1.1925 H       1  LIG1        0.0000
     20 H           2.8398    1.6851    1.6851 H       1  LIG1        0.0000
     21 H           1.6851    2.8398    1.6851 H       1  LIG1        0.0000
     22 H           8.2409    2.5174    2.3986 H       1  LIG1        0.0000
     23 H           7.5499    4.0330    0.6150 H       1  LIG1        0.0000
     24 H           5.2042    4.3503    0.2556 H       1  LIG1        0.0000
     25 H           3.5871    3.2637    1.5694 H       1  LIG1        0.0000
@<TRIPOS>BOND
     1     1     2    1
     2     2     3    1
     3     3     4    1
     4     4     5    1
     5     5     6    2
     6     6     7    1
     7     7     8    2
     8     8     9    1
     9     9    10    1
    10    10    11   ar
    11    11    12   ar
    12    12    13   ar
    13    13    14   ar
    14    14    15   ar
    15    15    10   ar
    16    15    16    1
    17    16     5    1
    18    16     8    1
    19     1    17    1
    20     2    18    1
    21     2    19    1
    22     3    20    1
    23     3    21    1
    24    11    22    1
    25    12    23    1
    26    13    24    1
    27    14    25    1
