@<TRIPOS>MOLECULE
*****
 25 27 0 0 0
SMALL
USER_CHARGES

@<TRIPOS>ATOM
      1 O1          1.2733    1.2733   -0.3664 O.3     1  LIG1        0.0000
      2 C2          1.0000    1.0000    1.0000 C.3     1  LIG1        0.0000
      3 C3          1.8776    1.8776    1.8776 C.3     1  LIG1        0.0000
      4 S4          1.5292    1.5292    3.6192 S.3     1  LIG1        0.0000
      5 C5          3.0748    0.9937    4.2160 C.2     1  LIG1        0.0000
      6 N6          4.2115    1.4200    3.7182 N.2     1  LIG1        0.0000
      7 N7          5.1841    0.8304    4.3762 N.2     1  LIG1        0.0000
      8 C8          4.6305    0.0553    5.2703 C.2     1  LIG1        0.0000
      9 S9          5.0914   -1.0259    6.4929 S.3     1  LIG1        0.0000
     10 C10         3.4797   -1.3696    6.9162 C.ar    1  LIG1        0.0000
     11 C11         3.3335   -2.2599    7.9617 C.ar    1  LIG1        0.0000
     12 C12         2.0208   -2.5229    8.3099 C.ar    1  LIG1        0.0000
     13 C13         1.0125   -1.8784    7.5921 C.ar    1  LIG1        0.0000
     14 C14         1.2902   -0.9951    6.5481 C.ar    1  LIG1        0.0000
     15 C15         2.5828   -0.6724    6.1276 C.ar    1  LIG1        0.0000
     16 N16         3.2911    0.0979    5.2317 N.pl3   1  LIG1        0.0000
     17 H           0.6959    0.6959   -0.9437 H       1  LIG1        0.0000
     18 H           1.1925    0.0377    1.1925 H       1  LIG1        0.0000
     19 H           0.0377    1.1925    1.1925 H       1  LIG1        0.0000
     20 H           2.8398    1.6851    1.6851 H       1  LIG1        0.0000
     21 H           1.6851    2.8398    1.6851 H       1  LIG1        0.0000
     22 H           4.1120   -2.6797    8.4284 H       1  LIG1        0.0000
     23 H           1.8012   -3.1551    9.0530 H       1  LIG1        0.0000
     24 H           0.0585   -2.0556    7.8339 H       1  LIG1        0.0000
     25 H           0.5200   -0.5686    6.0739 H       1  LIG1        0.0000
@<TRIPOS>BOND
     1     1     2    1
     2     2     3    1
     3     3     4    1
     4     4     5    1
     5     5     6    2
     6     6     7    1
     7     7     8    2
     8     8     9    1
     9     9    10    1
    10    10    11   ar
    11    11    12   ar
    12    12    13   ar
    13    13    14   ar
    14    14    15   ar
    15    15    10   ar
    16    15    16    1
    17    16     5    1
    18    16     8    1
    19     1    17    1
    20     2    18    1
    21     2    19    1
    22     3    20    1
    23     3    21    1
    24    11    22    1
    25    12    23    1
    26    13    24    1
    27    14    25    1
