@<TRIPOS>MOLECULE
*****
 25 27 0 0 0
SMALL
USER_CHARGES

@<TRIPOS>ATOM
      1 O1          1.2733    1.2733   -0.3664 O.3     1  LIG1        0.0000
      2 C2          1.0000    1.0000    1.0000 C.3     1  LIG1        0.0000
      3 C3          1.8776    1.8776    1.8776 C.3     1  LIG1        0.0000
      4 S4          1.5292    1.5292    3.6192 S.3     1  LIG1        0.0000
      5 C5          0.9937    3.0748    4.2160 C.2     1  LIG1        0.0000
      6 N6          1.4200    4.2115    3.7182 N.2     1  LIG1        0.0000
      7 N7          0.8363    5.1841    4.3813 N.2     1  LIG1        0.0000
      8 C8          0.0575    4.6305    5.2722 C.2     1  LIG1        0.0000
      9 S9         -1.0162    5.0915    6.5014 S.3     1  LIG1        0.0000
     10 C10        -1.3752    3.4797    6.9113 C.ar    1  LIG1        0.0000
     11 C11        -2.2928    3.3332    7.9329 C.ar    1  LIG1        0.0000
     12 C12        -2.5908    2.0202    8.2505 C.ar    1  LIG1        0.0000
     13 C13        -1.9546    1.0119    7.5254 C.ar    1  LIG1        0.0000
     14 C14        -1.0389    1.2899    6.5098 C.ar    1  LIG1        0.0000
     15 C15        -0.6769    2.5827    6.1237 C.ar    1  LIG1        0.0000
     16 N16         0.1028    3.2911    5.2360 N.pl3   1  LIG1        0.0000
     17 H           0.6959    0.6959   -0.9437 H       1  LIG1        0.0000
     18 H           1.1925    0.0377    1.1925 H       1  LIG1        0.0000
     19 H           0.0377    1.1925    1.1925 H       1  LIG1        0.0000
     20 H           2.8398    1.6851    1.6851 H       1  LIG1        0.0000
     21 H           1.6851    2.8398    1.6851 H       1  LIG1        0.0000
     22 H          -2.7074    4.1117    8.4041 H       1  LIG1        0.0000
     23 H          -3.2418    1.8005    8.9770 H       1  LIG1        0.0000
     24 H          -2.1619    0.0576    7.7409 H       1  LIG1        0.0000
     25 H          -0.6178    0.5196    6.0309 H       1  LIG1        0.0000
@<TRIPOS>BOND
     1     1     2    1
     2     2     3    1
     3     3     4    1
     4     4     5    1
     5     5     6    2
     6     6     7    1
     7     7     8    2
     8     8     9    1
     9     9    10    1
    10    10    11   ar
    11    11    12   ar
    12    12    13   ar
    13    13    14   ar
    14    14    15   ar
    15    15    10   ar
    16    15    16    1
    17    16     5    1
    18    16     8    1
    19     1    17    1
    20     2    18    1
    21     2    19    1
    22     3    20    1
    23     3    21    1
    24    11    22    1
    25    12    23    1
    26    13    24    1
    27    14    25    1
