@<TRIPOS>MOLECULE
*****
 25 27 0 0 0
SMALL
USER_CHARGES

@<TRIPOS>ATOM
      1 O1          1.2733    1.2733   -0.3664 O.3     1  LIG1        0.0000
      2 C2          1.0000    1.0000    1.0000 C.3     1  LIG1        0.0000
      3 C3          1.8776    1.8776    1.8776 C.3     1  LIG1        0.0000
      4 S4          1.5292    1.5292    3.6192 S.3     1  LIG1        0.0000
      5 C5          2.1898   -0.0684    3.8266 C.2     1  LIG1        0.0000
      6 N6          2.7698   -0.7261    2.8505 N.2     1  LIG1        0.0000
      7 N7          3.1533   -1.8904    3.3234 N.2     1  LIG1        0.0000
      8 C8          2.8077   -1.9282    4.5827 C.2     1  LIG1        0.0000
      9 S9          2.8949   -2.9854    5.9058 S.3     1  LIG1        0.0000
     10 C10         2.1106   -1.8891    6.9441 C.ar    1  LIG1        0.0000
     11 C11         1.9544   -2.3327    8.2425 C.ar    1  LIG1        0.0000
     12 C12         1.3294   -1.4302    9.0842 C.ar    1  LIG1        0.0000
     13 C13         0.9367   -0.2022    8.5501 C.ar    1  LIG1        0.0000
     14 C14         1.1509    0.1300    7.2118 C.ar    1  LIG1        0.0000
     15 C15         1.7710   -0.7182    6.2912 C.ar    1  LIG1        0.0000
     16 N16         2.1854   -0.8093    4.9806 N.pl3   1  LIG1        0.0000
     17 H           0.6959    0.6959   -0.9437 H       1  LIG1        0.0000
     18 H           1.1925    0.0377    1.1925 H       1  LIG1        0.0000
     19 H           0.0377    1.1925    1.1925 H       1  LIG1        0.0000
     20 H           2.8398    1.6851    1.6851 H       1  LIG1        0.0000
     21 H           1.6851    2.8398    1.6851 H       1  LIG1        0.0000
     22 H           2.2672   -3.2317    8.5489 H       1  LIG1        0.0000
     23 H           1.1642   -1.6508   10.0455 H       1  LIG1        0.0000
     24 H           0.4866    0.4622    9.1467 H       1  LIG1        0.0000
     25 H           0.8428    1.0266    6.8936 H       1  LIG1        0.0000
@<TRIPOS>BOND
     1     1     2    1
     2     2     3    1
     3     3     4    1
     4     4     5    1
     5     5     6    2
     6     6     7    1
     7     7     8    2
     8     8     9    1
     9     9    10    1
    10    10    11   ar
    11    11    12   ar
    12    12    13   ar
    13    13    14   ar
    14    14    15   ar
    15    15    10   ar
    16    15    16    1
    17    16     5    1
    18    16     8    1
    19     1    17    1
    20     2    18    1
    21     2    19    1
    22     3    20    1
    23     3    21    1
    24    11    22    1
    25    12    23    1
    26    13    24    1
    27    14    25    1
