@<TRIPOS>MOLECULE
*****
 25 27 0 0 0
SMALL
USER_CHARGES

@<TRIPOS>ATOM
      1 O1          1.2733    1.2733   -0.3664 O.3     1  LIG1        0.0000
      2 C2          1.0000    1.0000    1.0000 C.3     1  LIG1        0.0000
      3 C3          1.8776    1.8776    1.8776 C.3     1  LIG1        0.0000
      4 S4          1.5292    1.5292    3.6192 S.3     1  LIG1        0.0000
      5 C5          2.6123    2.6123    4.4472 C.2     1  LIG1        0.0000
      6 N6          3.8338    2.2708    4.7835 N.2     1  LIG1        0.0000
      7 N7          4.3847    3.2974    5.3909 N.2     1  LIG1        0.0000
      8 C8          3.4958    4.2545    5.4142 C.2     1  LIG1        0.0000
      9 S9          3.3418    5.8491    5.9705 S.3     1  LIG1        0.0000
     10 C10         1.7445    5.9855    5.4006 C.ar    1  LIG1        0.0000
     11 C11         1.1536    7.2136    5.6235 C.ar    1  LIG1        0.0000
     12 C12        -0.1395    7.3218    5.1441 C.ar    1  LIG1        0.0000
     13 C13        -0.6936    6.2134    4.5025 C.ar    1  LIG1        0.0000
     14 C14         0.0096    5.0192    4.3393 C.ar    1  LIG1        0.0000
     15 C15         1.3161    4.8198    4.7921 C.ar    1  LIG1        0.0000
     16 N16         2.3390    3.8982    4.8379 N.pl3   1  LIG1        0.0000
     17 H           0.6959    0.6959   -0.9437 H       1  LIG1        0.0000
     18 H           1.1925    0.0377    1.1925 H       1  LIG1        0.0000
     19 H           0.0377    1.1925    1.1925 H       1  LIG1        0.0000
     20 H           2.8398    1.6851    1.6851 H       1  LIG1        0.0000
     21 H           1.6851    2.8398    1.6851 H       1  LIG1        0.0000
     22 H           1.6216    7.9625    6.0926 H       1  LIG1        0.0000
     23 H          -0.6610    8.1680    5.2540 H       1  LIG1        0.0000
     24 H          -1.6263    6.2770    4.1475 H       1  LIG1        0.0000
     25 H          -0.4477    4.2630    3.8714 H       1  LIG1        0.0000
@<TRIPOS>BOND
     1     1     2    1
     2     2     3    1
     3     3     4    1
     4     4     5    1
     5     5     6    2
     6     6     7    1
     7     7     8    2
     8     8     9    1
     9     9    10    1
    10    10    11   ar
    11    11    12   ar
    12    12    13   ar
    13    13    14   ar
    14    14    15   ar
    15    15    10   ar
    16    15    16    1
    17    16     5    1
    18    16     8    1
    19     1    17    1
    20     2    18    1
    21     2    19    1
    22     3    20    1
    23     3    21    1
    24    11    22    1
    25    12    23    1
    26    13    24    1
    27    14    25    1
