@<TRIPOS>MOLECULE
*****
 25 27 0 0 0
SMALL
USER_CHARGES

@<TRIPOS>ATOM
      1 O1          1.2733    1.2733   -0.3664 O.3     1  LIG1        0.0000
      2 C2          1.0000    1.0000    1.0000 C.3     1  LIG1        0.0000
      3 C3          1.8776    1.8776    1.8776 C.3     1  LIG1        0.0000
      4 S4          2.2259    1.0192    3.4326 S.3     1  LIG1        0.0000
      5 C5          3.2864   -0.2661    2.9277 C.2     1  LIG1        0.0000
      6 N6          4.5911   -0.1324    2.8887 N.2     1  LIG1        0.0000
      7 N7          5.0985   -1.2684    2.4661 N.2     1  LIG1        0.0000
      8 C8          4.0990   -2.0832    2.2566 C.2     1  LIG1        0.0000
      9 S9          3.8279   -3.6720    1.7294 S.3     1  LIG1        0.0000
     10 C10         2.1406   -3.5317    1.8968 C.ar    1  LIG1        0.0000
     11 C11         1.4305   -4.6716    1.5748 C.ar    1  LIG1        0.0000
     12 C12         0.0607   -4.5547    1.7276 C.ar    1  LIG1        0.0000
     13 C13        -0.4448   -3.3352    2.1801 C.ar    1  LIG1        0.0000
     14 C14         0.3816   -2.2495    2.4727 C.ar    1  LIG1        0.0000
     15 C15         1.7726   -2.2766    2.3459 C.ar    1  LIG1        0.0000
     16 N16         2.9111   -1.5214    2.5222 N.pl3   1  LIG1        0.0000
     17 H           0.6959    0.6959   -0.9437 H       1  LIG1        0.0000
     18 H           1.1925    0.0377    1.1925 H       1  LIG1        0.0000
     19 H           0.0377    1.1925    1.1925 H       1  LIG1        0.0000
     20 H           2.7367    2.0700    1.4034 H       1  LIG1        0.0000
     21 H           1.4034    2.7367    2.0700 H       1  LIG1        0.0000
     22 H           1.8702   -5.5119    1.2575 H       1  LIG1        0.0000
     23 H          -0.5484   -5.3202    1.5203 H       1  LIG1        0.0000
     24 H          -1.4327   -3.2360    2.2988 H       1  LIG1        0.0000
     25 H          -0.0463   -1.4037    2.7912 H       1  LIG1        0.0000
@<TRIPOS>BOND
     1     1     2    1
     2     2     3    1
     3     3     4    1
     4     4     5    1
     5     5     6    2
     6     6     7    1
     7     7     8    2
     8     8     9    1
     9     9    10    1
    10    10    11   ar
    11    11    12   ar
    12    12    13   ar
    13    13    14   ar
    14    14    15   ar
    15    15    10   ar
    16    15    16    1
    17    16     5    1
    18    16     8    1
    19     1    17    1
    20     2    18    1
    21     2    19    1
    22     3    20    1
    23     3    21    1
    24    11    22    1
    25    12    23    1
    26    13    24    1
    27    14    25    1
