@<TRIPOS>MOLECULE

  75   78
SMALL
USER_CHARGES
@<TRIPOS>ATOM
   1 C1          -4.5083    10.6154    -4.4499 C.3          1    LIG   0.0000
   2 C2          -4.0268     9.2489    -3.9898 C.ar         1    LIG   0.0000
   3 C3          -4.1258     8.9279    -2.6402 C.ar         1    LIG   0.0000
   4 C4          -3.6974     7.6893    -2.1750 C.ar         1    LIG   0.0000
   5 C5          -3.1686     6.7759    -3.0808 C.ar         1    LIG   0.0000
   6 O6          -2.7521     5.5728    -2.6329 O.3          1    LIG   0.0000
   7 C7          -2.9001     5.3554    -1.2374 C.3          1    LIG   0.0000
   8 C8          -2.3918     3.9673    -0.8843 C.2          1    LIG   0.0000
   9 N9          -3.0929     2.8596    -0.8662 N.2          1    LIG   0.0000
  10 N10         -2.3210     1.8483    -0.5105 N.2          1    LIG   0.0000
  11 C11         -1.1054     2.2901    -0.3012 C.2          1    LIG   0.0000
  12 N12         -0.0006     1.5253     0.0799 N.pl3        1    LIG   0.0000
  13 C13         -0.1811     0.0779     0.2791 C.3          1    LIG   0.0000
  14 C14          0.7339    -0.4692     1.3659 C.3          1    LIG   0.0000
  15 C15          2.1665     0.0287     1.2287 C.3          1    LIG   0.0000
  16 C16          2.1273     1.5448     1.3615 C.3          1    LIG   0.0000
  17 N17          3.4836     2.1076     1.2984 N.am         1    LIG   0.0000
  18 C18          3.9832     2.8119     2.3620 C.2          1    LIG   0.0000
  19 O19          3.3134     2.9694     3.3451 O.2          1    LIG   0.0000
  20 C20          5.3858     3.3939     2.2967 C.3          1    LIG   0.0000
  21 C21          5.6932     4.1219     3.5952 C.3          1    LIG   0.0000
  22 C22          6.3911     2.2718     2.0947 C.3          1    LIG   0.0000
  23 C23          1.2943     2.2003     0.2693 C.3          1    LIG   0.0000
  24 N24         -1.1219     3.6320    -0.5297 N.pl3        1    LIG   0.0000
  25 C25          0.0181     4.5512    -0.4119 C.3          1    LIG   0.0000
  26 C26          1.1625     4.0523    -1.2780 C.2          1    LIG   0.0000
  27 C27          2.5352     4.0600    -0.9581 C.2          1    LIG   0.0000
  28 C28          3.1490     4.5755     0.3329 C.3          1    LIG   0.0000
  29 N29          3.1902     3.5419    -1.9682 N.2          1    LIG   0.0000
  30 N30          2.3434     3.2080    -2.9124 N.pl3        1    LIG   0.0000
  31 C31          2.7070     2.5952    -4.1993 C.3          1    LIG   0.0000
  32 C32          1.0740     3.5058    -2.5202 C.2          1    LIG   0.0000
  33 C33         -0.1970     3.2726    -3.3206 C.3          1    LIG   0.0000
  34 C34         -3.0646     7.0832    -4.4337 C.ar         1    LIG   0.0000
  35 C35         -3.4959     8.3262    -4.8868 C.ar         1    LIG   0.0000
  36 C36         -3.3737     8.6433    -6.3685 C.3          1    LIG   0.0000
  37 H            1.7278     1.7762     2.2485 H            1    LIG   0.0000
  38 H           -4.8527    11.1293    -3.6643 H            1    LIG   0.0000
  39 H           -3.7481    11.1137    -4.8668 H            1    LIG   0.0000
  40 H           -5.2407    10.5021    -5.1213 H            1    LIG   0.0000
  41 H           -4.5081     9.5932    -1.9990 H            1    LIG   0.0000
  42 H           -3.7685     7.4590    -1.2045 H            1    LIG   0.0000
  43 H           -3.8659     5.4298    -0.9891 H            1    LIG   0.0000
  44 H           -2.3730     6.0411    -0.7355 H            1    LIG   0.0000
  45 H            0.0205    -0.3933    -0.5796 H            1    LIG   0.0000
  46 H           -1.1308    -0.0957     0.5396 H            1    LIG   0.0000
  47 H            0.7350    -1.4677     1.3113 H            1    LIG   0.0000
  48 H            0.3796    -0.1845     2.2566 H            1    LIG   0.0000
  49 H            2.7370    -0.3643     1.9499 H            1    LIG   0.0000
  50 H            2.5350    -0.2281     0.3352 H            1    LIG   0.0000
  51 H            4.0418     1.9763     0.4791 H            1    LIG   0.0000
  52 H            5.4450     4.0361     1.5325 H            1    LIG   0.0000
  53 H            6.6160     4.5048     3.5522 H            1    LIG   0.0000
  54 H            5.0319     4.8601     3.7281 H            1    LIG   0.0000
  55 H            5.6340     3.4798     4.3594 H            1    LIG   0.0000
  56 H            7.3139     2.6547     2.0518 H            1    LIG   0.0000
  57 H            6.3318     1.6297     2.8590 H            1    LIG   0.0000
  58 H            6.1888     1.7929     1.2405 H            1    LIG   0.0000
  59 H            1.1272     3.1539     0.5197 H            1    LIG   0.0000
  60 H            1.8046     2.1659    -0.5900 H            1    LIG   0.0000
  61 H            0.3155     4.5928     0.5420 H            1    LIG   0.0000
  62 H           -0.2566     5.4635    -0.7155 H            1    LIG   0.0000
  63 H            2.4255     4.9171     0.9328 H            1    LIG   0.0000
  64 H            3.6377     3.8323     0.7897 H            1    LIG   0.0000
  65 H            3.7877     5.3166     0.1256 H            1    LIG   0.0000
  66 H            1.8802     2.4396    -4.7399 H            1    LIG   0.0000
  67 H            3.3211     3.2068    -4.6981 H            1    LIG   0.0000
  68 H            3.1669     1.7226    -4.0349 H            1    LIG   0.0000
  69 H           -0.9861     3.5847    -2.7916 H            1    LIG   0.0000
  70 H           -0.1484     3.7827    -4.1793 H            1    LIG   0.0000
  71 H           -0.2925     2.2968    -3.5175 H            1    LIG   0.0000
  72 H           -2.6834     6.4169    -5.0746 H            1    LIG   0.0000
  73 H           -2.9720     7.8611    -6.8447 H            1    LIG   0.0000
  74 H           -4.2807     8.8327    -6.7447 H            1    LIG   0.0000
  75 H           -2.7881     9.4446    -6.4907 H            1    LIG   0.0000
@<TRIPOS>BOND
   1        1        2 1
   2        2        3 ar
   3        3        4 ar
   4        4        5 ar
   5        5        6 1
   6        6        7 1
   7        7        8 1
   8        8        9 2
   9        9       10 1
  10       10       11 2
  11       11       12 1
  12       12       13 1
  13       13       14 1
  14       14       15 1
  15       15       16 1
  16       16       17 1
  17       17       18 am
  18       18       19 2
  19       18       20 1
  20       20       21 1
  21       20       22 1
  22       16       23 1
  23       23       12 1
  24       11       24 1
  25       24        8 1
  26       24       25 1
  27       25       26 1
  28       26       27 1
  29       27       28 1
  30       27       29 2
  31       29       30 1
  32       30       31 1
  33       30       32 1
  34       32       26 2
  35       32       33 1
  36        5       34 ar
  37       34       35 ar
  38       35        2 ar
  39       35       36 1
  40       16       37 1
  41        1       38 1
  42        1       39 1
  43        1       40 1
  44        3       41 1
  45        4       42 1
  46        7       43 1
  47        7       44 1
  48       13       45 1
  49       13       46 1
  50       14       47 1
  51       14       48 1
  52       15       49 1
  53       15       50 1
  54       17       51 1
  55       20       52 1
  56       21       53 1
  57       21       54 1
  58       21       55 1
  59       22       56 1
  60       22       57 1
  61       22       58 1
  62       23       59 1
  63       23       60 1
  64       25       61 1
  65       25       62 1
  66       28       63 1
  67       28       64 1
  68       28       65 1
  69       31       66 1
  70       31       67 1
  71       31       68 1
  72       33       69 1
  73       33       70 1
  74       33       71 1
  75       34       72 1
  76       36       73 1
  77       36       74 1
  78       36       75 1

@<TRIPOS>MOLECULE

  75   78
SMALL
USER_CHARGES
@<TRIPOS>ATOM
   1 C1           2.1462     7.8302    -4.2833 C.3          1    LIG   0.0000
   2 C2           0.8313     7.2327    -3.8092 C.ar         1    LIG   0.0000
   3 C3           0.0427     6.5466    -4.7267 C.ar         1    LIG   0.0000
   4 C4          -1.1679     5.9840    -4.3369 C.ar         1    LIG   0.0000
   5 C5          -1.5779     6.1178    -3.0147 C.ar         1    LIG   0.0000
   6 O6          -2.7521     5.5728    -2.6329 O.3          1    LIG   0.0000
   7 C7          -2.9001     5.3554    -1.2374 C.3          1    LIG   0.0000
   8 C8          -2.3918     3.9673    -0.8843 C.2          1    LIG   0.0000
   9 N9          -3.0929     2.8596    -0.8662 N.2          1    LIG   0.0000
  10 N10         -2.3210     1.8483    -0.5105 N.2          1    LIG   0.0000
  11 C11         -1.1054     2.2901    -0.3012 C.2          1    LIG   0.0000
  12 N12         -0.0006     1.5253     0.0799 N.pl3        1    LIG   0.0000
  13 C13         -0.1811     0.0779     0.2791 C.3          1    LIG   0.0000
  14 C14          0.7339    -0.4692     1.3659 C.3          1    LIG   0.0000
  15 C15          2.1665     0.0287     1.2287 C.3          1    LIG   0.0000
  16 C16          2.1273     1.5448     1.3615 C.3          1    LIG   0.0000
  17 N17          3.4836     2.1076     1.2984 N.am         1    LIG   0.0000
  18 C18          3.9832     2.8119     2.3620 C.2          1    LIG   0.0000
  19 O19          3.3134     2.9694     3.3451 O.2          1    LIG   0.0000
  20 C20          5.3858     3.3939     2.2967 C.3          1    LIG   0.0000
  21 C21          5.6932     4.1219     3.5952 C.3          1    LIG   0.0000
  22 C22          6.3911     2.2718     2.0947 C.3          1    LIG   0.0000
  23 C23          1.2943     2.2003     0.2693 C.3          1    LIG   0.0000
  24 N24         -1.1219     3.6320    -0.5297 N.pl3        1    LIG   0.0000
  25 C25          0.0181     4.5512    -0.4119 C.3          1    LIG   0.0000
  26 C26          1.1625     4.0523    -1.2780 C.2          1    LIG   0.0000
  27 C27          2.5352     4.0600    -0.9581 C.2          1    LIG   0.0000
  28 C28          3.1490     4.5755     0.3329 C.3          1    LIG   0.0000
  29 N29          3.1902     3.5419    -1.9682 N.2          1    LIG   0.0000
  30 N30          2.3434     3.2080    -2.9124 N.pl3        1    LIG   0.0000
  31 C31          2.7070     2.5952    -4.1993 C.3          1    LIG   0.0000
  32 C32          1.0740     3.5058    -2.5202 C.2          1    LIG   0.0000
  33 C33         -0.1970     3.2726    -3.3206 C.3          1    LIG   0.0000
  34 C34         -0.7987     6.8005    -2.0860 C.ar         1    LIG   0.0000
  35 C35          0.4103     7.3597    -2.4884 C.ar         1    LIG   0.0000
  36 C36          1.2472     8.1020    -1.4592 C.3          1    LIG   0.0000
  37 H            1.7278     1.7762     2.2485 H            1    LIG   0.0000
  38 H            2.2702     7.6338    -5.2559 H            1    LIG   0.0000
  39 H            2.1326     8.8201    -4.1422 H            1    LIG   0.0000
  40 H            2.9009     7.4297    -3.7636 H            1    LIG   0.0000
  41 H            0.3487     6.4571    -5.6745 H            1    LIG   0.0000
  42 H           -1.7347     5.4910    -4.9970 H            1    LIG   0.0000
  43 H           -3.8659     5.4298    -0.9891 H            1    LIG   0.0000
  44 H           -2.3730     6.0411    -0.7355 H            1    LIG   0.0000
  45 H            0.0205    -0.3933    -0.5796 H            1    LIG   0.0000
  46 H           -1.1308    -0.0957     0.5396 H            1    LIG   0.0000
  47 H            0.7350    -1.4677     1.3113 H            1    LIG   0.0000
  48 H            0.3796    -0.1845     2.2566 H            1    LIG   0.0000
  49 H            2.7370    -0.3643     1.9499 H            1    LIG   0.0000
  50 H            2.5350    -0.2281     0.3352 H            1    LIG   0.0000
  51 H            4.0418     1.9763     0.4791 H            1    LIG   0.0000
  52 H            5.4450     4.0361     1.5325 H            1    LIG   0.0000
  53 H            6.6160     4.5048     3.5522 H            1    LIG   0.0000
  54 H            5.0319     4.8601     3.7281 H            1    LIG   0.0000
  55 H            5.6340     3.4798     4.3594 H            1    LIG   0.0000
  56 H            7.3139     2.6547     2.0518 H            1    LIG   0.0000
  57 H            6.3318     1.6297     2.8590 H            1    LIG   0.0000
  58 H            6.1888     1.7929     1.2405 H            1    LIG   0.0000
  59 H            1.1272     3.1539     0.5197 H            1    LIG   0.0000
  60 H            1.8046     2.1659    -0.5900 H            1    LIG   0.0000
  61 H            0.3155     4.5928     0.5420 H            1    LIG   0.0000
  62 H           -0.2566     5.4635    -0.7155 H            1    LIG   0.0000
  63 H            2.4255     4.9171     0.9328 H            1    LIG   0.0000
  64 H            3.6377     3.8323     0.7897 H            1    LIG   0.0000
  65 H            3.7877     5.3166     0.1256 H            1    LIG   0.0000
  66 H            1.8802     2.4396    -4.7399 H            1    LIG   0.0000
  67 H            3.3211     3.2068    -4.6981 H            1    LIG   0.0000
  68 H            3.1669     1.7226    -4.0349 H            1    LIG   0.0000
  69 H           -0.9861     3.5847    -2.7916 H            1    LIG   0.0000
  70 H           -0.1484     3.7827    -4.1793 H            1    LIG   0.0000
  71 H           -0.2925     2.2968    -3.5175 H            1    LIG   0.0000
  72 H           -1.1047     6.8885    -1.1380 H            1    LIG   0.0000
  73 H            0.7804     8.0849    -0.5750 H            1    LIG   0.0000
  74 H            2.1398     7.6594    -1.3736 H            1    LIG   0.0000
  75 H            1.3720     9.0500    -1.7521 H            1    LIG   0.0000
@<TRIPOS>BOND
   1        1        2 1
   2        2        3 ar
   3        3        4 ar
   4        4        5 ar
   5        5        6 1
   6        6        7 1
   7        7        8 1
   8        8        9 2
   9        9       10 1
  10       10       11 2
  11       11       12 1
  12       12       13 1
  13       13       14 1
  14       14       15 1
  15       15       16 1
  16       16       17 1
  17       17       18 am
  18       18       19 2
  19       18       20 1
  20       20       21 1
  21       20       22 1
  22       16       23 1
  23       23       12 1
  24       11       24 1
  25       24        8 1
  26       24       25 1
  27       25       26 1
  28       26       27 1
  29       27       28 1
  30       27       29 2
  31       29       30 1
  32       30       31 1
  33       30       32 1
  34       32       26 2
  35       32       33 1
  36        5       34 ar
  37       34       35 ar
  38       35        2 ar
  39       35       36 1
  40       16       37 1
  41        1       38 1
  42        1       39 1
  43        1       40 1
  44        3       41 1
  45        4       42 1
  46        7       43 1
  47        7       44 1
  48       13       45 1
  49       13       46 1
  50       14       47 1
  51       14       48 1
  52       15       49 1
  53       15       50 1
  54       17       51 1
  55       20       52 1
  56       21       53 1
  57       21       54 1
  58       21       55 1
  59       22       56 1
  60       22       57 1
  61       22       58 1
  62       23       59 1
  63       23       60 1
  64       25       61 1
  65       25       62 1
  66       28       63 1
  67       28       64 1
  68       28       65 1
  69       31       66 1
  70       31       67 1
  71       31       68 1
  72       33       69 1
  73       33       70 1
  74       33       71 1
  75       34       72 1
  76       36       73 1
  77       36       74 1
  78       36       75 1

@<TRIPOS>MOLECULE

  75   78
SMALL
USER_CHARGES
@<TRIPOS>ATOM
   1 C1          -8.1187     1.9131    -2.5772 C.3          1    LIG   0.0000
   2 C2          -6.8986     2.8180    -2.5170 C.ar         1    LIG   0.0000
   3 C3          -6.5468     3.5375    -3.6540 C.ar         1    LIG   0.0000
   4 C4          -5.4383     4.3772    -3.6442 C.ar         1    LIG   0.0000
   5 C5          -4.6868     4.4868    -2.4790 C.ar         1    LIG   0.0000
   6 O6          -3.6105     5.3010    -2.4658 O.3          1    LIG   0.0000
   7 C7          -2.9001     5.3554    -1.2374 C.3          1    LIG   0.0000
   8 C8          -2.3918     3.9673    -0.8843 C.2          1    LIG   0.0000
   9 N9          -3.0929     2.8596    -0.8662 N.2          1    LIG   0.0000
  10 N10         -2.3210     1.8483    -0.5105 N.2          1    LIG   0.0000
  11 C11         -1.1054     2.2901    -0.3012 C.2          1    LIG   0.0000
  12 N12         -0.0006     1.5253     0.0799 N.pl3        1    LIG   0.0000
  13 C13         -0.1811     0.0779     0.2791 C.3          1    LIG   0.0000
  14 C14          0.7339    -0.4692     1.3659 C.3          1    LIG   0.0000
  15 C15          2.1665     0.0287     1.2287 C.3          1    LIG   0.0000
  16 C16          2.1273     1.5448     1.3615 C.3          1    LIG   0.0000
  17 N17          3.4836     2.1076     1.2984 N.am         1    LIG   0.0000
  18 C18          4.4283     1.7223     2.2128 C.2          1    LIG   0.0000
  19 O19          5.5938     1.8790     1.9736 O.2          1    LIG   0.0000
  20 C20          4.0002     1.0965     3.5301 C.3          1    LIG   0.0000
  21 C21          5.2316     0.7633     4.3566 C.3          1    LIG   0.0000
  22 C22          3.1259     2.0760     4.2959 C.3          1    LIG   0.0000
  23 C23          1.2943     2.2003     0.2693 C.3          1    LIG   0.0000
  24 N24         -1.1219     3.6320    -0.5297 N.pl3        1    LIG   0.0000
  25 C25          0.0181     4.5512    -0.4119 C.3          1    LIG   0.0000
  26 C26          1.1625     4.0523    -1.2780 C.2          1    LIG   0.0000
  27 C27          2.5352     4.0600    -0.9581 C.2          1    LIG   0.0000
  28 C28          3.1490     4.5755     0.3329 C.3          1    LIG   0.0000
  29 N29          3.1902     3.5419    -1.9682 N.2          1    LIG   0.0000
  30 N30          2.3434     3.2080    -2.9124 N.pl3        1    LIG   0.0000
  31 C31          2.7070     2.5952    -4.1993 C.3          1    LIG   0.0000
  32 C32          1.0740     3.5058    -2.5202 C.2          1    LIG   0.0000
  33 C33         -0.1970     3.2726    -3.3206 C.3          1    LIG   0.0000
  34 C34         -5.0278     3.7738    -1.3340 C.ar         1    LIG   0.0000
  35 C35         -6.1387     2.9361    -1.3566 C.ar         1    LIG   0.0000
  36 C36         -6.4949     2.1653    -0.0958 C.3          1    LIG   0.0000
  37 H            1.7278     1.7762     2.2485 H            1    LIG   0.0000
  38 H           -8.5268     1.9641    -3.4887 H            1    LIG   0.0000
  39 H           -7.8442     0.9705    -2.3870 H            1    LIG   0.0000
  40 H           -8.7875     2.2096    -1.8954 H            1    LIG   0.0000
  41 H           -7.0954     3.4503    -4.4855 H            1    LIG   0.0000
  42 H           -5.1855     4.8942    -4.4620 H            1    LIG   0.0000
  43 H           -3.5091     5.6813    -0.5143 H            1    LIG   0.0000
  44 H           -2.1253     5.9811    -1.3279 H            1    LIG   0.0000
  45 H            0.0205    -0.3933    -0.5796 H            1    LIG   0.0000
  46 H           -1.1308    -0.0957     0.5396 H            1    LIG   0.0000
  47 H            0.7350    -1.4677     1.3113 H            1    LIG   0.0000
  48 H            0.3796    -0.1845     2.2566 H            1    LIG   0.0000
  49 H            2.7370    -0.3643     1.9499 H            1    LIG   0.0000
  50 H            2.5350    -0.2281     0.3352 H            1    LIG   0.0000
  51 H            3.7169     2.7716     0.5880 H            1    LIG   0.0000
  52 H            3.4836     0.2596     3.3493 H            1    LIG   0.0000
  53 H            4.9499     0.3515     5.2233 H            1    LIG   0.0000
  54 H            5.8068     0.1188     3.8528 H            1    LIG   0.0000
  55 H            5.7482     1.6002     4.5375 H            1    LIG   0.0000
  56 H            2.8442     1.6643     5.1626 H            1    LIG   0.0000
  57 H            3.6425     2.9130     4.4768 H            1    LIG   0.0000
  58 H            2.3158     2.2953     3.7522 H            1    LIG   0.0000
  59 H            1.1272     3.1539     0.5197 H            1    LIG   0.0000
  60 H            1.8046     2.1659    -0.5900 H            1    LIG   0.0000
  61 H            0.3155     4.5928     0.5420 H            1    LIG   0.0000
  62 H           -0.2566     5.4635    -0.7155 H            1    LIG   0.0000
  63 H            2.4255     4.9171     0.9328 H            1    LIG   0.0000
  64 H            3.6377     3.8323     0.7897 H            1    LIG   0.0000
  65 H            3.7877     5.3166     0.1256 H            1    LIG   0.0000
  66 H            1.8802     2.4396    -4.7399 H            1    LIG   0.0000
  67 H            3.3211     3.2068    -4.6981 H            1    LIG   0.0000
  68 H            3.1669     1.7226    -4.0349 H            1    LIG   0.0000
  69 H           -0.9861     3.5847    -2.7916 H            1    LIG   0.0000
  70 H           -0.1484     3.7827    -4.1793 H            1    LIG   0.0000
  71 H           -0.2925     2.2968    -3.5175 H            1    LIG   0.0000
  72 H           -4.4795     3.8624    -0.5024 H            1    LIG   0.0000
  73 H           -5.8356     2.3813     0.6244 H            1    LIG   0.0000
  74 H           -7.4131     2.4234     0.2045 H            1    LIG   0.0000
  75 H           -6.4702     1.1840    -0.2869 H            1    LIG   0.0000
@<TRIPOS>BOND
   1        1        2 1
   2        2        3 ar
   3        3        4 ar
   4        4        5 ar
   5        5        6 1
   6        6        7 1
   7        7        8 1
   8        8        9 2
   9        9       10 1
  10       10       11 2
  11       11       12 1
  12       12       13 1
  13       13       14 1
  14       14       15 1
  15       15       16 1
  16       16       17 1
  17       17       18 am
  18       18       19 2
  19       18       20 1
  20       20       21 1
  21       20       22 1
  22       16       23 1
  23       23       12 1
  24       11       24 1
  25       24        8 1
  26       24       25 1
  27       25       26 1
  28       26       27 1
  29       27       28 1
  30       27       29 2
  31       29       30 1
  32       30       31 1
  33       30       32 1
  34       32       26 2
  35       32       33 1
  36        5       34 ar
  37       34       35 ar
  38       35        2 ar
  39       35       36 1
  40       16       37 1
  41        1       38 1
  42        1       39 1
  43        1       40 1
  44        3       41 1
  45        4       42 1
  46        7       43 1
  47        7       44 1
  48       13       45 1
  49       13       46 1
  50       14       47 1
  51       14       48 1
  52       15       49 1
  53       15       50 1
  54       17       51 1
  55       20       52 1
  56       21       53 1
  57       21       54 1
  58       21       55 1
  59       22       56 1
  60       22       57 1
  61       22       58 1
  62       23       59 1
  63       23       60 1
  64       25       61 1
  65       25       62 1
  66       28       63 1
  67       28       64 1
  68       28       65 1
  69       31       66 1
  70       31       67 1
  71       31       68 1
  72       33       69 1
  73       33       70 1
  74       33       71 1
  75       34       72 1
  76       36       73 1
  77       36       74 1
  78       36       75 1

@<TRIPOS>MOLECULE

  75   78
SMALL
USER_CHARGES
@<TRIPOS>ATOM
   1 C1          -7.7374     5.1040     2.8992 C.3          1    LIG   0.0000
   2 C2          -6.8314     5.1520     1.6795 C.ar         1    LIG   0.0000
   3 C3          -5.4560     5.2197     1.8742 C.ar         1    LIG   0.0000
   4 C4          -4.5897     5.2656     0.7873 C.ar         1    LIG   0.0000
   5 C5          -5.1202     5.2424    -0.4982 C.ar         1    LIG   0.0000
   6 O6          -4.2824     5.2865    -1.5553 O.3          1    LIG   0.0000
   7 C7          -2.9001     5.3554    -1.2374 C.3          1    LIG   0.0000
   8 C8          -2.3918     3.9673    -0.8843 C.2          1    LIG   0.0000
   9 N9          -3.0929     2.8596    -0.8662 N.2          1    LIG   0.0000
  10 N10         -2.3210     1.8483    -0.5105 N.2          1    LIG   0.0000
  11 C11         -1.1054     2.2901    -0.3012 C.2          1    LIG   0.0000
  12 N12         -0.0006     1.5253     0.0799 N.pl3        1    LIG   0.0000
  13 C13         -0.1811     0.0779     0.2791 C.3          1    LIG   0.0000
  14 C14          0.7339    -0.4692     1.3659 C.3          1    LIG   0.0000
  15 C15          2.1665     0.0287     1.2287 C.3          1    LIG   0.0000
  16 C16          2.1273     1.5448     1.3615 C.3          1    LIG   0.0000
  17 N17          3.4836     2.1076     1.2984 N.am         1    LIG   0.0000
  18 C18          3.9832     2.8119     2.3620 C.2          1    LIG   0.0000
  19 O19          3.3134     2.9694     3.3451 O.2          1    LIG   0.0000
  20 C20          5.3858     3.3939     2.2967 C.3          1    LIG   0.0000
  21 C21          5.6932     4.1219     3.5952 C.3          1    LIG   0.0000
  22 C22          6.3911     2.2718     2.0947 C.3          1    LIG   0.0000
  23 C23          1.2943     2.2003     0.2693 C.3          1    LIG   0.0000
  24 N24         -1.1219     3.6320    -0.5297 N.pl3        1    LIG   0.0000
  25 C25          0.0181     4.5512    -0.4119 C.3          1    LIG   0.0000
  26 C26          1.1625     4.0523    -1.2780 C.2          1    LIG   0.0000
  27 C27          2.5352     4.0600    -0.9581 C.2          1    LIG   0.0000
  28 C28          3.1490     4.5755     0.3329 C.3          1    LIG   0.0000
  29 N29          3.1902     3.5419    -1.9682 N.2          1    LIG   0.0000
  30 N30          2.3434     3.2080    -2.9124 N.pl3        1    LIG   0.0000
  31 C31          2.7070     2.5952    -4.1993 C.3          1    LIG   0.0000
  32 C32          1.0740     3.5058    -2.5202 C.2          1    LIG   0.0000
  33 C33         -0.1970     3.2726    -3.3206 C.3          1    LIG   0.0000
  34 C34         -6.4939     5.1738    -0.7077 C.ar         1    LIG   0.0000
  35 C35         -7.3505     5.1292     0.3880 C.ar         1    LIG   0.0000
  36 C36         -8.8481     5.0547     0.1385 C.3          1    LIG   0.0000
  37 H            1.7278     1.7762     2.2485 H            1    LIG   0.0000
  38 H           -7.1805     5.1298     3.7293 H            1    LIG   0.0000
  39 H           -8.3545     5.8907     2.8872 H            1    LIG   0.0000
  40 H           -8.2732     4.2598     2.8834 H            1    LIG   0.0000
  41 H           -5.0869     5.2355     2.8035 H            1    LIG   0.0000
  42 H           -3.6008     5.3145     0.9277 H            1    LIG   0.0000
  43 H           -2.7675     5.9673    -0.4577 H            1    LIG   0.0000
  44 H           -2.3938     5.7052    -2.0256 H            1    LIG   0.0000
  45 H            0.0205    -0.3933    -0.5796 H            1    LIG   0.0000
  46 H           -1.1308    -0.0957     0.5396 H            1    LIG   0.0000
  47 H            0.7350    -1.4677     1.3113 H            1    LIG   0.0000
  48 H            0.3796    -0.1845     2.2566 H            1    LIG   0.0000
  49 H            2.7370    -0.3643     1.9499 H            1    LIG   0.0000
  50 H            2.5350    -0.2281     0.3352 H            1    LIG   0.0000
  51 H            4.0418     1.9763     0.4791 H            1    LIG   0.0000
  52 H            5.4450     4.0361     1.5325 H            1    LIG   0.0000
  53 H            6.6160     4.5048     3.5522 H            1    LIG   0.0000
  54 H            5.0319     4.8601     3.7281 H            1    LIG   0.0000
  55 H            5.6340     3.4798     4.3594 H            1    LIG   0.0000
  56 H            7.3139     2.6547     2.0518 H            1    LIG   0.0000
  57 H            6.3318     1.6297     2.8590 H            1    LIG   0.0000
  58 H            6.1888     1.7929     1.2405 H            1    LIG   0.0000
  59 H            1.1272     3.1539     0.5197 H            1    LIG   0.0000
  60 H            1.8046     2.1659    -0.5900 H            1    LIG   0.0000
  61 H            0.3155     4.5928     0.5420 H            1    LIG   0.0000
  62 H           -0.2566     5.4635    -0.7155 H            1    LIG   0.0000
  63 H            2.4255     4.9171     0.9328 H            1    LIG   0.0000
  64 H            3.6377     3.8323     0.7897 H            1    LIG   0.0000
  65 H            3.7877     5.3166     0.1256 H            1    LIG   0.0000
  66 H            1.8802     2.4396    -4.7399 H            1    LIG   0.0000
  67 H            3.3211     3.2068    -4.6981 H            1    LIG   0.0000
  68 H            3.1669     1.7226    -4.0349 H            1    LIG   0.0000
  69 H           -0.9861     3.5847    -2.7916 H            1    LIG   0.0000
  70 H           -0.1484     3.7827    -4.1793 H            1    LIG   0.0000
  71 H           -0.2925     2.2968    -3.5175 H            1    LIG   0.0000
  72 H           -6.8623     5.1567    -1.6373 H            1    LIG   0.0000
  73 H           -9.0221     5.0484    -0.8462 H            1    LIG   0.0000
  74 H           -9.2128     4.2179     0.5468 H            1    LIG   0.0000
  75 H           -9.2946     5.8488     0.5508 H            1    LIG   0.0000
@<TRIPOS>BOND
   1        1        2 1
   2        2        3 ar
   3        3        4 ar
   4        4        5 ar
   5        5        6 1
   6        6        7 1
   7        7        8 1
   8        8        9 2
   9        9       10 1
  10       10       11 2
  11       11       12 1
  12       12       13 1
  13       13       14 1
  14       14       15 1
  15       15       16 1
  16       16       17 1
  17       17       18 am
  18       18       19 2
  19       18       20 1
  20       20       21 1
  21       20       22 1
  22       16       23 1
  23       23       12 1
  24       11       24 1
  25       24        8 1
  26       24       25 1
  27       25       26 1
  28       26       27 1
  29       27       28 1
  30       27       29 2
  31       29       30 1
  32       30       31 1
  33       30       32 1
  34       32       26 2
  35       32       33 1
  36        5       34 ar
  37       34       35 ar
  38       35        2 ar
  39       35       36 1
  40       16       37 1
  41        1       38 1
  42        1       39 1
  43        1       40 1
  44        3       41 1
  45        4       42 1
  46        7       43 1
  47        7       44 1
  48       13       45 1
  49       13       46 1
  50       14       47 1
  51       14       48 1
  52       15       49 1
  53       15       50 1
  54       17       51 1
  55       20       52 1
  56       21       53 1
  57       21       54 1
  58       21       55 1
  59       22       56 1
  60       22       57 1
  61       22       58 1
  62       23       59 1
  63       23       60 1
  64       25       61 1
  65       25       62 1
  66       28       63 1
  67       28       64 1
  68       28       65 1
  69       31       66 1
  70       31       67 1
  71       31       68 1
  72       33       69 1
  73       33       70 1
  74       33       71 1
  75       34       72 1
  76       36       73 1
  77       36       74 1
  78       36       75 1

@<TRIPOS>MOLECULE

  75   78
SMALL
USER_CHARGES
@<TRIPOS>ATOM
   1 C1          -0.6545     8.0044     4.1024 C.3          1    LIG   0.0000
   2 C2          -0.9493     7.5605     2.6787 C.ar         1    LIG   0.0000
   3 C3          -1.9760     6.6468     2.4654 C.ar         1    LIG   0.0000
   4 C4          -2.2802     6.2130     1.1796 C.ar         1    LIG   0.0000
   5 C5          -1.5418     6.7075     0.1097 C.ar         1    LIG   0.0000
   6 O6          -1.8345     6.2888    -1.1395 O.3          1    LIG   0.0000
   7 C7          -2.9001     5.3554    -1.2374 C.3          1    LIG   0.0000
   8 C8          -2.3918     3.9673    -0.8843 C.2          1    LIG   0.0000
   9 N9          -3.0929     2.8596    -0.8662 N.2          1    LIG   0.0000
  10 N10         -2.3210     1.8483    -0.5105 N.2          1    LIG   0.0000
  11 C11         -1.1054     2.2901    -0.3012 C.2          1    LIG   0.0000
  12 N12         -0.0006     1.5253     0.0799 N.pl3        1    LIG   0.0000
  13 C13         -0.1811     0.0779     0.2791 C.3          1    LIG   0.0000
  14 C14          0.7339    -0.4692     1.3659 C.3          1    LIG   0.0000
  15 C15          2.1665     0.0287     1.2287 C.3          1    LIG   0.0000
  16 C16          2.1273     1.5448     1.3615 C.3          1    LIG   0.0000
  17 N17          3.4836     2.1076     1.2984 N.am         1    LIG   0.0000
  18 C18          3.9832     2.8119     2.3620 C.2          1    LIG   0.0000
  19 O19          3.3134     2.9694     3.3451 O.2          1    LIG   0.0000
  20 C20          5.3858     3.3939     2.2967 C.3          1    LIG   0.0000
  21 C21          5.6932     4.1219     3.5952 C.3          1    LIG   0.0000
  22 C22          6.3911     2.2718     2.0947 C.3          1    LIG   0.0000
  23 C23          1.2943     2.2003     0.2693 C.3          1    LIG   0.0000
  24 N24         -1.1219     3.6320    -0.5297 N.pl3        1    LIG   0.0000
  25 C25          0.0181     4.5512    -0.4119 C.3          1    LIG   0.0000
  26 C26          1.1625     4.0523    -1.2780 C.2          1    LIG   0.0000
  27 C27          2.5352     4.0600    -0.9581 C.2          1    LIG   0.0000
  28 C28          3.1490     4.5755     0.3329 C.3          1    LIG   0.0000
  29 N29          3.1902     3.5419    -1.9682 N.2          1    LIG   0.0000
  30 N30          2.3434     3.2080    -2.9124 N.pl3        1    LIG   0.0000
  31 C31          2.7070     2.5952    -4.1993 C.3          1    LIG   0.0000
  32 C32          1.0740     3.5058    -2.5202 C.2          1    LIG   0.0000
  33 C33         -0.1970     3.2726    -3.3206 C.3          1    LIG   0.0000
  34 C34         -0.5129     7.6226     0.3083 C.ar         1    LIG   0.0000
  35 C35         -0.2175     8.0484     1.5997 C.ar         1    LIG   0.0000
  36 C36          0.9104     9.0484     1.7963 C.3          1    LIG   0.0000
  37 H            1.7278     1.7762     2.2485 H            1    LIG   0.0000
  38 H           -1.2826     7.5461     4.7313 H            1    LIG   0.0000
  39 H            0.2872     7.7644     4.3381 H            1    LIG   0.0000
  40 H           -0.7742     8.9946     4.1744 H            1    LIG   0.0000
  41 H           -2.4997     6.2989     3.2430 H            1    LIG   0.0000
  42 H           -3.0183     5.5558     1.0267 H            1    LIG   0.0000
  43 H           -3.2558     5.3523    -2.1721 H            1    LIG   0.0000
  44 H           -3.6294     5.6144    -0.6041 H            1    LIG   0.0000
  45 H            0.0205    -0.3933    -0.5796 H            1    LIG   0.0000
  46 H           -1.1308    -0.0957     0.5396 H            1    LIG   0.0000
  47 H            0.7350    -1.4677     1.3113 H            1    LIG   0.0000
  48 H            0.3796    -0.1845     2.2566 H            1    LIG   0.0000
  49 H            2.7370    -0.3643     1.9499 H            1    LIG   0.0000
  50 H            2.5350    -0.2281     0.3352 H            1    LIG   0.0000
  51 H            4.0418     1.9763     0.4791 H            1    LIG   0.0000
  52 H            5.4450     4.0361     1.5325 H            1    LIG   0.0000
  53 H            6.6160     4.5048     3.5522 H            1    LIG   0.0000
  54 H            5.0319     4.8601     3.7281 H            1    LIG   0.0000
  55 H            5.6340     3.4798     4.3594 H            1    LIG   0.0000
  56 H            7.3139     2.6547     2.0518 H            1    LIG   0.0000
  57 H            6.3318     1.6297     2.8590 H            1    LIG   0.0000
  58 H            6.1888     1.7929     1.2405 H            1    LIG   0.0000
  59 H            1.1272     3.1539     0.5197 H            1    LIG   0.0000
  60 H            1.8046     2.1659    -0.5900 H            1    LIG   0.0000
  61 H            0.3155     4.5928     0.5420 H            1    LIG   0.0000
  62 H           -0.2566     5.4635    -0.7155 H            1    LIG   0.0000
  63 H            2.4255     4.9171     0.9328 H            1    LIG   0.0000
  64 H            3.6377     3.8323     0.7897 H            1    LIG   0.0000
  65 H            3.7877     5.3166     0.1256 H            1    LIG   0.0000
  66 H            1.8802     2.4396    -4.7399 H            1    LIG   0.0000
  67 H            3.3211     3.2068    -4.6981 H            1    LIG   0.0000
  68 H            3.1669     1.7226    -4.0349 H            1    LIG   0.0000
  69 H           -0.9861     3.5847    -2.7916 H            1    LIG   0.0000
  70 H           -0.1484     3.7827    -4.1793 H            1    LIG   0.0000
  71 H           -0.2925     2.2968    -3.5175 H            1    LIG   0.0000
  72 H            0.0096     7.9711    -0.4699 H            1    LIG   0.0000
  73 H            1.3118     9.2766     0.9093 H            1    LIG   0.0000
  74 H            0.5498     9.8781     2.2224 H            1    LIG   0.0000
  75 H            1.6116     8.6482     2.3864 H            1    LIG   0.0000
@<TRIPOS>BOND
   1        1        2 1
   2        2        3 ar
   3        3        4 ar
   4        4        5 ar
   5        5        6 1
   6        6        7 1
   7        7        8 1
   8        8        9 2
   9        9       10 1
  10       10       11 2
  11       11       12 1
  12       12       13 1
  13       13       14 1
  14       14       15 1
  15       15       16 1
  16       16       17 1
  17       17       18 am
  18       18       19 2
  19       18       20 1
  20       20       21 1
  21       20       22 1
  22       16       23 1
  23       23       12 1
  24       11       24 1
  25       24        8 1
  26       24       25 1
  27       25       26 1
  28       26       27 1
  29       27       28 1
  30       27       29 2
  31       29       30 1
  32       30       31 1
  33       30       32 1
  34       32       26 2
  35       32       33 1
  36        5       34 ar
  37       34       35 ar
  38       35        2 ar
  39       35       36 1
  40       16       37 1
  41        1       38 1
  42        1       39 1
  43        1       40 1
  44        3       41 1
  45        4       42 1
  46        7       43 1
  47        7       44 1
  48       13       45 1
  49       13       46 1
  50       14       47 1
  51       14       48 1
  52       15       49 1
  53       15       50 1
  54       17       51 1
  55       20       52 1
  56       21       53 1
  57       21       54 1
  58       21       55 1
  59       22       56 1
  60       22       57 1
  61       22       58 1
  62       23       59 1
  63       23       60 1
  64       25       61 1
  65       25       62 1
  66       28       63 1
  67       28       64 1
  68       28       65 1
  69       31       66 1
  70       31       67 1
  71       31       68 1
  72       33       69 1
  73       33       70 1
  74       33       71 1
  75       34       72 1
  76       36       73 1
  77       36       74 1
  78       36       75 1

@<TRIPOS>MOLECULE

  75   78
SMALL
USER_CHARGES
@<TRIPOS>ATOM
   1 C1          -4.7030     9.5854    -5.9526 C.3          1    LIG   0.0000
   2 C2          -4.2321     8.3394    -5.2201 C.ar         1    LIG   0.0000
   3 C3          -4.0800     8.3967    -3.8388 C.ar         1    LIG   0.0000
   4 C4          -3.6514     7.2809    -3.1280 C.ar         1    LIG   0.0000
   5 C5          -3.3773     6.1060    -3.8201 C.ar         1    LIG   0.0000
   6 O6          -2.9614     5.0211    -3.1334 O.3          1    LIG   0.0000
   7 C7          -2.8412     5.1955    -1.7293 C.3          1    LIG   0.0000
   8 C8          -2.3668     3.8976    -1.0964 C.2          1    LIG   0.0000
   9 N9          -3.1229     2.9252    -0.6475 N.2          1    LIG   0.0000
  10 N10         -2.3651     1.9575    -0.1634 N.2          1    LIG   0.0000
  11 C11         -1.1054     2.2901    -0.3012 C.2          1    LIG   0.0000
  12 N12         -0.0006     1.5253     0.0799 N.pl3        1    LIG   0.0000
  13 C13         -0.1811     0.0779     0.2791 C.3          1    LIG   0.0000
  14 C14          0.7339    -0.4692     1.3659 C.3          1    LIG   0.0000
  15 C15          2.1665     0.0287     1.2287 C.3          1    LIG   0.0000
  16 C16          2.1273     1.5448     1.3615 C.3          1    LIG   0.0000
  17 N17          3.4836     2.1076     1.2984 N.am         1    LIG   0.0000
  18 C18          3.9832     2.8119     2.3620 C.2          1    LIG   0.0000
  19 O19          3.3134     2.9694     3.3451 O.2          1    LIG   0.0000
  20 C20          5.3858     3.3939     2.2967 C.3          1    LIG   0.0000
  21 C21          5.6932     4.1219     3.5952 C.3          1    LIG   0.0000
  22 C22          6.3911     2.2718     2.0947 C.3          1    LIG   0.0000
  23 C23          1.2943     2.2003     0.2693 C.3          1    LIG   0.0000
  24 N24         -1.0771     3.5176    -0.8892 N.pl3        1    LIG   0.0000
  25 C25          0.1225     4.2926    -1.2336 C.3          1    LIG   0.0000
  26 C26          0.5068     5.1790    -0.0608 C.2          1    LIG   0.0000
  27 C27          1.5953     6.0718     0.0077 C.2          1    LIG   0.0000
  28 C28          2.6124     6.3268    -1.0920 C.3          1    LIG   0.0000
  29 N29          1.5756     6.6461     1.1857 N.2          1    LIG   0.0000
  30 N30          0.5616     6.1860     1.8787 N.pl3        1    LIG   0.0000
  31 C31          0.2144     6.5969     3.2478 C.3          1    LIG   0.0000
  32 C32         -0.1285     5.2757     1.1378 C.2          1    LIG   0.0000
  33 C33         -1.3701     4.5133     1.5710 C.3          1    LIG   0.0000
  34 C34         -3.5260     6.0341    -5.2015 C.ar         1    LIG   0.0000
  35 C35         -3.9548     7.1576    -5.9016 C.ar         1    LIG   0.0000
  36 C36         -4.1108     7.0592    -7.4105 C.3          1    LIG   0.0000
  37 H            1.7278     1.7762     2.2485 H            1    LIG   0.0000
  38 H           -4.8478    10.3242    -5.2945 H            1    LIG   0.0000
  39 H           -4.0100     9.8628    -6.6180 H            1    LIG   0.0000
  40 H           -5.5610     9.3888    -6.4272 H            1    LIG   0.0000
  41 H           -4.2806     9.2473    -3.3528 H            1    LIG   0.0000
  42 H           -3.5420     7.3227    -2.1349 H            1    LIG   0.0000
  43 H           -3.7304     5.4471    -1.3473 H            1    LIG   0.0000
  44 H           -2.1793     5.9206    -1.5389 H            1    LIG   0.0000
  45 H            0.0205    -0.3933    -0.5796 H            1    LIG   0.0000
  46 H           -1.1308    -0.0957     0.5396 H            1    LIG   0.0000
  47 H            0.7350    -1.4677     1.3113 H            1    LIG   0.0000
  48 H            0.3796    -0.1845     2.2566 H            1    LIG   0.0000
  49 H            2.7370    -0.3643     1.9499 H            1    LIG   0.0000
  50 H            2.5350    -0.2281     0.3352 H            1    LIG   0.0000
  51 H            4.0418     1.9763     0.4791 H            1    LIG   0.0000
  52 H            5.4450     4.0361     1.5325 H            1    LIG   0.0000
  53 H            6.6160     4.5048     3.5522 H            1    LIG   0.0000
  54 H            5.0319     4.8601     3.7281 H            1    LIG   0.0000
  55 H            5.6340     3.4798     4.3594 H            1    LIG   0.0000
  56 H            7.3139     2.6547     2.0518 H            1    LIG   0.0000
  57 H            6.3318     1.6297     2.8590 H            1    LIG   0.0000
  58 H            6.1888     1.7929     1.2405 H            1    LIG   0.0000
  59 H            1.1272     3.1539     0.5197 H            1    LIG   0.0000
  60 H            1.8046     2.1659    -0.5900 H            1    LIG   0.0000
  61 H           -0.0667     4.8618    -2.0337 H            1    LIG   0.0000
  62 H            0.8754     3.6675    -1.4397 H            1    LIG   0.0000
  63 H            2.3955     5.7578    -1.8852 H            1    LIG   0.0000
  64 H            2.5836     7.2910    -1.3556 H            1    LIG   0.0000
  65 H            3.5275     6.0995    -0.7590 H            1    LIG   0.0000
  66 H           -0.5993     6.0997     3.5489 H            1    LIG   0.0000
  67 H            0.9769     6.3909     3.8612 H            1    LIG   0.0000
  68 H            0.0296     7.5796     3.2642 H            1    LIG   0.0000
  69 H           -1.6674     3.9117     0.8296 H            1    LIG   0.0000
  70 H           -1.1593     3.9654     2.3806 H            1    LIG   0.0000
  71 H           -2.1003     5.1612     1.7878 H            1    LIG   0.0000
  72 H           -3.3266     5.1828    -5.6868 H            1    LIG   0.0000
  73 H           -3.8662     6.1376    -7.7115 H            1    LIG   0.0000
  74 H           -5.0600     7.2506    -7.6606 H            1    LIG   0.0000
  75 H           -3.5091     7.7248    -7.8519 H            1    LIG   0.0000
@<TRIPOS>BOND
   1        1        2 1
   2        2        3 ar
   3        3        4 ar
   4        4        5 ar
   5        5        6 1
   6        6        7 1
   7        7        8 1
   8        8        9 2
   9        9       10 1
  10       10       11 2
  11       11       12 1
  12       12       13 1
  13       13       14 1
  14       14       15 1
  15       15       16 1
  16       16       17 1
  17       17       18 am
  18       18       19 2
  19       18       20 1
  20       20       21 1
  21       20       22 1
  22       16       23 1
  23       23       12 1
  24       11       24 1
  25       24        8 1
  26       24       25 1
  27       25       26 1
  28       26       27 1
  29       27       28 1
  30       27       29 2
  31       29       30 1
  32       30       31 1
  33       30       32 1
  34       32       26 2
  35       32       33 1
  36        5       34 ar
  37       34       35 ar
  38       35        2 ar
  39       35       36 1
  40       16       37 1
  41        1       38 1
  42        1       39 1
  43        1       40 1
  44        3       41 1
  45        4       42 1
  46        7       43 1
  47        7       44 1
  48       13       45 1
  49       13       46 1
  50       14       47 1
  51       14       48 1
  52       15       49 1
  53       15       50 1
  54       17       51 1
  55       20       52 1
  56       21       53 1
  57       21       54 1
  58       21       55 1
  59       22       56 1
  60       22       57 1
  61       22       58 1
  62       23       59 1
  63       23       60 1
  64       25       61 1
  65       25       62 1
  66       28       63 1
  67       28       64 1
  68       28       65 1
  69       31       66 1
  70       31       67 1
  71       31       68 1
  72       33       69 1
  73       33       70 1
  74       33       71 1
  75       34       72 1
  76       36       73 1
  77       36       74 1
  78       36       75 1

@<TRIPOS>MOLECULE

  75   78
SMALL
USER_CHARGES
@<TRIPOS>ATOM
   1 C1          -4.7030     9.5854    -5.9526 C.3          1    LIG   0.0000
   2 C2          -4.2321     8.3394    -5.2201 C.ar         1    LIG   0.0000
   3 C3          -4.0800     8.3967    -3.8388 C.ar         1    LIG   0.0000
   4 C4          -3.6514     7.2809    -3.1280 C.ar         1    LIG   0.0000
   5 C5          -3.3773     6.1060    -3.8201 C.ar         1    LIG   0.0000
   6 O6          -2.9614     5.0211    -3.1334 O.3          1    LIG   0.0000
   7 C7          -2.8412     5.1955    -1.7293 C.3          1    LIG   0.0000
   8 C8          -2.3668     3.8976    -1.0964 C.2          1    LIG   0.0000
   9 N9          -3.1229     2.9252    -0.6475 N.2          1    LIG   0.0000
  10 N10         -2.3651     1.9575    -0.1634 N.2          1    LIG   0.0000
  11 C11         -1.1054     2.2901    -0.3012 C.2          1    LIG   0.0000
  12 N12         -0.0006     1.5253     0.0799 N.pl3        1    LIG   0.0000
  13 C13         -0.1811     0.0779     0.2791 C.3          1    LIG   0.0000
  14 C14          0.7339    -0.4692     1.3659 C.3          1    LIG   0.0000
  15 C15          2.1665     0.0287     1.2287 C.3          1    LIG   0.0000
  16 C16          2.1273     1.5448     1.3615 C.3          1    LIG   0.0000
  17 N17          3.4836     2.1076     1.2984 N.am         1    LIG   0.0000
  18 C18          3.9832     2.8119     2.3620 C.2          1    LIG   0.0000
  19 O19          3.3134     2.9694     3.3451 O.2          1    LIG   0.0000
  20 C20          5.3858     3.3939     2.2967 C.3          1    LIG   0.0000
  21 C21          5.6932     4.1219     3.5952 C.3          1    LIG   0.0000
  22 C22          6.3911     2.2718     2.0947 C.3          1    LIG   0.0000
  23 C23          1.2943     2.2003     0.2693 C.3          1    LIG   0.0000
  24 N24         -1.0771     3.5176    -0.8892 N.pl3        1    LIG   0.0000
  25 C25          0.1225     4.2926    -1.2336 C.3          1    LIG   0.0000
  26 C26          0.0860     4.6535    -2.7091 C.2          1    LIG   0.0000
  27 C27          0.0456     3.7623    -3.8003 C.2          1    LIG   0.0000
  28 C28          0.0304     2.2452    -3.7150 C.3          1    LIG   0.0000
  29 N29          0.0205     4.4712    -4.9025 N.2          1    LIG   0.0000
  30 N30          0.0473     5.7474    -4.6013 N.pl3        1    LIG   0.0000
  31 C31          0.0305     6.8489    -5.5761 C.3          1    LIG   0.0000
  32 C32          0.0846     5.9017    -3.2491 C.2          1    LIG   0.0000
  33 C33          0.1197     7.2186    -2.4908 C.3          1    LIG   0.0000
  34 C34         -3.5260     6.0341    -5.2015 C.ar         1    LIG   0.0000
  35 C35         -3.9548     7.1576    -5.9016 C.ar         1    LIG   0.0000
  36 C36         -4.1108     7.0592    -7.4105 C.3          1    LIG   0.0000
  37 H            1.7278     1.7762     2.2485 H            1    LIG   0.0000
  38 H           -4.8478    10.3242    -5.2945 H            1    LIG   0.0000
  39 H           -4.0100     9.8628    -6.6180 H            1    LIG   0.0000
  40 H           -5.5610     9.3888    -6.4272 H            1    LIG   0.0000
  41 H           -4.2806     9.2473    -3.3528 H            1    LIG   0.0000
  42 H           -3.5420     7.3227    -2.1349 H            1    LIG   0.0000
  43 H           -3.7304     5.4471    -1.3473 H            1    LIG   0.0000
  44 H           -2.1793     5.9206    -1.5389 H            1    LIG   0.0000
  45 H            0.0205    -0.3933    -0.5796 H            1    LIG   0.0000
  46 H           -1.1308    -0.0957     0.5396 H            1    LIG   0.0000
  47 H            0.7350    -1.4677     1.3113 H            1    LIG   0.0000
  48 H            0.3796    -0.1845     2.2566 H            1    LIG   0.0000
  49 H            2.7370    -0.3643     1.9499 H            1    LIG   0.0000
  50 H            2.5350    -0.2281     0.3352 H            1    LIG   0.0000
  51 H            4.0418     1.9763     0.4791 H            1    LIG   0.0000
  52 H            5.4450     4.0361     1.5325 H            1    LIG   0.0000
  53 H            6.6160     4.5048     3.5522 H            1    LIG   0.0000
  54 H            5.0319     4.8601     3.7281 H            1    LIG   0.0000
  55 H            5.6340     3.4798     4.3594 H            1    LIG   0.0000
  56 H            7.3139     2.6547     2.0518 H            1    LIG   0.0000
  57 H            6.3318     1.6297     2.8590 H            1    LIG   0.0000
  58 H            6.1888     1.7929     1.2405 H            1    LIG   0.0000
  59 H            1.1272     3.1539     0.5197 H            1    LIG   0.0000
  60 H            1.8046     2.1659    -0.5900 H            1    LIG   0.0000
  61 H            0.9382     3.7460    -1.0441 H            1    LIG   0.0000
  62 H            0.1474     5.1292    -0.6863 H            1    LIG   0.0000
  63 H            0.0561     1.9650    -2.7554 H            1    LIG   0.0000
  64 H           -0.8035     1.8957    -4.1421 H            1    LIG   0.0000
  65 H            0.8287     1.8766    -4.1914 H            1    LIG   0.0000
  66 H            0.0578     7.7233    -5.0916 H            1    LIG   0.0000
  67 H            0.8271     6.7753    -6.1761 H            1    LIG   0.0000
  68 H           -0.8049     6.7971    -6.1233 H            1    LIG   0.0000
  69 H            0.1434     7.0367    -1.5077 H            1    LIG   0.0000
  70 H            0.9355     7.7333    -2.7543 H            1    LIG   0.0000
  71 H           -0.6968     7.7522    -2.7114 H            1    LIG   0.0000
  72 H           -3.3266     5.1828    -5.6868 H            1    LIG   0.0000
  73 H           -3.8662     6.1376    -7.7115 H            1    LIG   0.0000
  74 H           -5.0600     7.2506    -7.6606 H            1    LIG   0.0000
  75 H           -3.5091     7.7248    -7.8519 H            1    LIG   0.0000
@<TRIPOS>BOND
   1        1        2 1
   2        2        3 ar
   3        3        4 ar
   4        4        5 ar
   5        5        6 1
   6        6        7 1
   7        7        8 1
   8        8        9 2
   9        9       10 1
  10       10       11 2
  11       11       12 1
  12       12       13 1
  13       13       14 1
  14       14       15 1
  15       15       16 1
  16       16       17 1
  17       17       18 am
  18       18       19 2
  19       18       20 1
  20       20       21 1
  21       20       22 1
  22       16       23 1
  23       23       12 1
  24       11       24 1
  25       24        8 1
  26       24       25 1
  27       25       26 1
  28       26       27 1
  29       27       28 1
  30       27       29 2
  31       29       30 1
  32       30       31 1
  33       30       32 1
  34       32       26 2
  35       32       33 1
  36        5       34 ar
  37       34       35 ar
  38       35        2 ar
  39       35       36 1
  40       16       37 1
  41        1       38 1
  42        1       39 1
  43        1       40 1
  44        3       41 1
  45        4       42 1
  46        7       43 1
  47        7       44 1
  48       13       45 1
  49       13       46 1
  50       14       47 1
  51       14       48 1
  52       15       49 1
  53       15       50 1
  54       17       51 1
  55       20       52 1
  56       21       53 1
  57       21       54 1
  58       21       55 1
  59       22       56 1
  60       22       57 1
  61       22       58 1
  62       23       59 1
  63       23       60 1
  64       25       61 1
  65       25       62 1
  66       28       63 1
  67       28       64 1
  68       28       65 1
  69       31       66 1
  70       31       67 1
  71       31       68 1
  72       33       69 1
  73       33       70 1
  74       33       71 1
  75       34       72 1
  76       36       73 1
  77       36       74 1
  78       36       75 1

@<TRIPOS>MOLECULE

  75   78
SMALL
USER_CHARGES
@<TRIPOS>ATOM
   1 C1          -4.6963     9.5241    -6.0534 C.3          1    LIG   0.0000
   2 C2          -4.2306     8.3274    -5.2398 C.ar         1    LIG   0.0000
   3 C3          -3.9490     7.1390    -5.9051 C.ar         1    LIG   0.0000
   4 C4          -3.5204     6.0191    -5.2008 C.ar         1    LIG   0.0000
   5 C5          -3.3773     6.1060    -3.8201 C.ar         1    LIG   0.0000
   6 O6          -2.9614     5.0211    -3.1334 O.3          1    LIG   0.0000
   7 C7          -2.8412     5.1955    -1.7293 C.3          1    LIG   0.0000
   8 C8          -2.3668     3.8976    -1.0964 C.2          1    LIG   0.0000
   9 N9          -3.1229     2.9252    -0.6475 N.2          1    LIG   0.0000
  10 N10         -2.3651     1.9575    -0.1634 N.2          1    LIG   0.0000
  11 C11         -1.1054     2.2901    -0.3012 C.2          1    LIG   0.0000
  12 N12         -0.0006     1.5253     0.0799 N.pl3        1    LIG   0.0000
  13 C13         -0.1811     0.0779     0.2791 C.3          1    LIG   0.0000
  14 C14          0.7339    -0.4692     1.3659 C.3          1    LIG   0.0000
  15 C15          2.1665     0.0287     1.2287 C.3          1    LIG   0.0000
  16 C16          2.1273     1.5448     1.3615 C.3          1    LIG   0.0000
  17 N17          3.4836     2.1076     1.2984 N.am         1    LIG   0.0000
  18 C18          4.4283     1.7223     2.2128 C.2          1    LIG   0.0000
  19 O19          5.5938     1.8790     1.9736 O.2          1    LIG   0.0000
  20 C20          4.0002     1.0965     3.5301 C.3          1    LIG   0.0000
  21 C21          5.2316     0.7633     4.3566 C.3          1    LIG   0.0000
  22 C22          3.1259     2.0760     4.2959 C.3          1    LIG   0.0000
  23 C23          1.2943     2.2003     0.2693 C.3          1    LIG   0.0000
  24 N24         -1.0771     3.5176    -0.8892 N.pl3        1    LIG   0.0000
  25 C25          0.1225     4.2926    -1.2336 C.3          1    LIG   0.0000
  26 C26          0.0381     5.6680    -0.5933 C.2          1    LIG   0.0000
  27 C27          0.3284     6.0006     0.7452 C.2          1    LIG   0.0000
  28 C28          0.7890     5.0367     1.8259 C.3          1    LIG   0.0000
  29 N29          0.1343     7.2882     0.8948 N.2          1    LIG   0.0000
  30 N30         -0.2632     7.8047    -0.2434 N.pl3        1    LIG   0.0000
  31 C31         -0.5793     9.2241    -0.4658 C.3          1    LIG   0.0000
  32 C32         -0.3318     6.8313    -1.1929 C.2          1    LIG   0.0000
  33 C33         -0.7450     7.0127    -2.6444 C.3          1    LIG   0.0000
  34 C34         -3.6545     7.2886    -3.1417 C.ar         1    LIG   0.0000
  35 C35         -4.0834     8.4021    -3.8575 C.ar         1    LIG   0.0000
  36 C36         -4.3815     9.6849    -3.0984 C.3          1    LIG   0.0000
  37 H            1.7278     1.7762     2.2485 H            1    LIG   0.0000
  38 H           -4.7387     9.2735    -7.0206 H            1    LIG   0.0000
  39 H           -5.6038     9.8061    -5.7421 H            1    LIG   0.0000
  40 H           -4.0527    10.2800    -5.9329 H            1    LIG   0.0000
  41 H           -4.0556     7.0895    -6.8982 H            1    LIG   0.0000
  42 H           -3.3183     5.1648    -5.6796 H            1    LIG   0.0000
  43 H           -3.7304     5.4471    -1.3473 H            1    LIG   0.0000
  44 H           -2.1793     5.9206    -1.5389 H            1    LIG   0.0000
  45 H            0.0205    -0.3933    -0.5796 H            1    LIG   0.0000
  46 H           -1.1308    -0.0957     0.5396 H            1    LIG   0.0000
  47 H            0.7350    -1.4677     1.3113 H            1    LIG   0.0000
  48 H            0.3796    -0.1845     2.2566 H            1    LIG   0.0000
  49 H            2.7370    -0.3643     1.9499 H            1    LIG   0.0000
  50 H            2.5350    -0.2281     0.3352 H            1    LIG   0.0000
  51 H            3.7169     2.7716     0.5880 H            1    LIG   0.0000
  52 H            3.4836     0.2596     3.3493 H            1    LIG   0.0000
  53 H            4.9499     0.3515     5.2233 H            1    LIG   0.0000
  54 H            5.8068     0.1188     3.8528 H            1    LIG   0.0000
  55 H            5.7482     1.6002     4.5375 H            1    LIG   0.0000
  56 H            2.8442     1.6643     5.1626 H            1    LIG   0.0000
  57 H            3.6425     2.9130     4.4768 H            1    LIG   0.0000
  58 H            2.3158     2.2953     3.7522 H            1    LIG   0.0000
  59 H            1.1272     3.1539     0.5197 H            1    LIG   0.0000
  60 H            1.8046     2.1659    -0.5900 H            1    LIG   0.0000
  61 H            0.1823     4.3905    -2.2270 H            1    LIG   0.0000
  62 H            0.9348     3.8171    -0.8960 H            1    LIG   0.0000
  63 H            0.8553     4.1148     1.4440 H            1    LIG   0.0000
  64 H            1.6848     5.3215     2.1669 H            1    LIG   0.0000
  65 H            0.1298     5.0393     2.5779 H            1    LIG   0.0000
  66 H           -0.8576     9.3586    -1.4168 H            1    LIG   0.0000
  67 H           -1.3246     9.4987     0.1417 H            1    LIG   0.0000
  68 H            0.2296     9.7798    -0.2734 H            1    LIG   0.0000
  69 H           -0.7054     6.1312    -3.1149 H            1    LIG   0.0000
  70 H           -1.6784     7.3695    -2.6831 H            1    LIG   0.0000
  71 H           -0.1232     7.6567    -3.0900 H            1    LIG   0.0000
  72 H           -3.5465     7.3380    -2.1488 H            1    LIG   0.0000
  73 H           -4.2174     9.5405    -2.1225 H            1    LIG   0.0000
  74 H           -3.7860    10.4157    -3.4320 H            1    LIG   0.0000
  75 H           -5.3372     9.9424    -3.2412 H            1    LIG   0.0000
@<TRIPOS>BOND
   1        1        2 1
   2        2        3 ar
   3        3        4 ar
   4        4        5 ar
   5        5        6 1
   6        6        7 1
   7        7        8 1
   8        8        9 2
   9        9       10 1
  10       10       11 2
  11       11       12 1
  12       12       13 1
  13       13       14 1
  14       14       15 1
  15       15       16 1
  16       16       17 1
  17       17       18 am
  18       18       19 2
  19       18       20 1
  20       20       21 1
  21       20       22 1
  22       16       23 1
  23       23       12 1
  24       11       24 1
  25       24        8 1
  26       24       25 1
  27       25       26 1
  28       26       27 1
  29       27       28 1
  30       27       29 2
  31       29       30 1
  32       30       31 1
  33       30       32 1
  34       32       26 2
  35       32       33 1
  36        5       34 ar
  37       34       35 ar
  38       35        2 ar
  39       35       36 1
  40       16       37 1
  41        1       38 1
  42        1       39 1
  43        1       40 1
  44        3       41 1
  45        4       42 1
  46        7       43 1
  47        7       44 1
  48       13       45 1
  49       13       46 1
  50       14       47 1
  51       14       48 1
  52       15       49 1
  53       15       50 1
  54       17       51 1
  55       20       52 1
  56       21       53 1
  57       21       54 1
  58       21       55 1
  59       22       56 1
  60       22       57 1
  61       22       58 1
  62       23       59 1
  63       23       60 1
  64       25       61 1
  65       25       62 1
  66       28       63 1
  67       28       64 1
  68       28       65 1
  69       31       66 1
  70       31       67 1
  71       31       68 1
  72       33       69 1
  73       33       70 1
  74       33       71 1
  75       34       72 1
  76       36       73 1
  77       36       74 1
  78       36       75 1

@<TRIPOS>MOLECULE

  75   78
SMALL
USER_CHARGES
@<TRIPOS>ATOM
   1 C1          -4.6963     9.5241    -6.0534 C.3          1    LIG   0.0000
   2 C2          -4.2306     8.3274    -5.2398 C.ar         1    LIG   0.0000
   3 C3          -3.9490     7.1390    -5.9051 C.ar         1    LIG   0.0000
   4 C4          -3.5204     6.0191    -5.2008 C.ar         1    LIG   0.0000
   5 C5          -3.3773     6.1060    -3.8201 C.ar         1    LIG   0.0000
   6 O6          -2.9614     5.0211    -3.1334 O.3          1    LIG   0.0000
   7 C7          -2.8412     5.1955    -1.7293 C.3          1    LIG   0.0000
   8 C8          -2.3668     3.8976    -1.0964 C.2          1    LIG   0.0000
   9 N9          -3.1229     2.9252    -0.6475 N.2          1    LIG   0.0000
  10 N10         -2.3651     1.9575    -0.1634 N.2          1    LIG   0.0000
  11 C11         -1.1054     2.2901    -0.3012 C.2          1    LIG   0.0000
  12 N12         -0.0006     1.5253     0.0799 N.pl3        1    LIG   0.0000
  13 C13         -0.1811     0.0779     0.2791 C.3          1    LIG   0.0000
  14 C14          0.7339    -0.4692     1.3659 C.3          1    LIG   0.0000
  15 C15          2.1665     0.0287     1.2287 C.3          1    LIG   0.0000
  16 C16          2.1273     1.5448     1.3615 C.3          1    LIG   0.0000
  17 N17          3.4836     2.1076     1.2984 N.am         1    LIG   0.0000
  18 C18          3.9832     2.8119     2.3620 C.2          1    LIG   0.0000
  19 O19          5.1680     2.9618     2.4791 O.2          1    LIG   0.0000
  20 C20          3.0366     3.4036     3.3937 C.3          1    LIG   0.0000
  21 C21          3.8397     4.1295     4.4607 C.3          1    LIG   0.0000
  22 C22          2.0947     4.3839     2.7138 C.3          1    LIG   0.0000
  23 C23          1.2943     2.2003     0.2693 C.3          1    LIG   0.0000
  24 N24         -1.0771     3.5176    -0.8892 N.pl3        1    LIG   0.0000
  25 C25          0.1225     4.2926    -1.2336 C.3          1    LIG   0.0000
  26 C26          0.8463     3.6196    -2.3876 C.2          1    LIG   0.0000
  27 C27          2.1282     3.9315    -2.8835 C.2          1    LIG   0.0000
  28 C28          3.0511     5.0168    -2.3547 C.3          1    LIG   0.0000
  29 N29          2.3868     3.1198    -3.8794 N.2          1    LIG   0.0000
  30 N30          1.3671     2.3155    -4.0630 N.pl3        1    LIG   0.0000
  31 C31          1.2899     1.2655    -5.0904 C.3          1    LIG   0.0000
  32 C32          0.3919     2.5920    -3.1541 C.2          1    LIG   0.0000
  33 C33         -0.9483     1.8866    -3.0243 C.3          1    LIG   0.0000
  34 C34         -3.6545     7.2886    -3.1417 C.ar         1    LIG   0.0000
  35 C35         -4.0834     8.4021    -3.8575 C.ar         1    LIG   0.0000
  36 C36         -4.3815     9.6849    -3.0984 C.3          1    LIG   0.0000
  37 H            1.7278     1.7762     2.2485 H            1    LIG   0.0000
  38 H           -4.7387     9.2735    -7.0206 H            1    LIG   0.0000
  39 H           -5.6038     9.8061    -5.7421 H            1    LIG   0.0000
  40 H           -4.0527    10.2800    -5.9329 H            1    LIG   0.0000
  41 H           -4.0556     7.0895    -6.8982 H            1    LIG   0.0000
  42 H           -3.3183     5.1648    -5.6796 H            1    LIG   0.0000
  43 H           -3.7304     5.4471    -1.3473 H            1    LIG   0.0000
  44 H           -2.1793     5.9206    -1.5389 H            1    LIG   0.0000
  45 H            0.0205    -0.3933    -0.5796 H            1    LIG   0.0000
  46 H           -1.1308    -0.0957     0.5396 H            1    LIG   0.0000
  47 H            0.7350    -1.4677     1.3113 H            1    LIG   0.0000
  48 H            0.3796    -0.1845     2.2566 H            1    LIG   0.0000
  49 H            2.7370    -0.3643     1.9499 H            1    LIG   0.0000
  50 H            2.5350    -0.2281     0.3352 H            1    LIG   0.0000
  51 H            4.0418     1.9763     0.4791 H            1    LIG   0.0000
  52 H            2.5052     2.6702     3.8178 H            1    LIG   0.0000
  53 H            3.2170     4.5187     5.1394 H            1    LIG   0.0000
  54 H            4.4594     3.4846     4.9079 H            1    LIG   0.0000
  55 H            4.3711     4.8628     4.0366 H            1    LIG   0.0000
  56 H            1.4720     4.7731     3.3926 H            1    LIG   0.0000
  57 H            2.6261     5.1172     2.2898 H            1    LIG   0.0000
  58 H            1.5664     3.9063     2.0119 H            1    LIG   0.0000
  59 H            1.1272     3.1539     0.5197 H            1    LIG   0.0000
  60 H            1.8046     2.1659    -0.5900 H            1    LIG   0.0000
  61 H            0.7295     4.3374    -0.4401 H            1    LIG   0.0000
  62 H           -0.1443     5.2183    -1.5018 H            1    LIG   0.0000
  63 H            2.6086     5.4880    -1.5916 H            1    LIG   0.0000
  64 H            3.9059     4.6037    -2.0408 H            1    LIG   0.0000
  65 H            3.2460     5.6730    -3.0837 H            1    LIG   0.0000
  66 H            0.4105     0.7947    -5.0204 H            1    LIG   0.0000
  67 H            1.3755     1.6791    -5.9968 H            1    LIG   0.0000
  68 H            2.0314     0.6089    -4.9523 H            1    LIG   0.0000
  69 H           -1.4676     2.2933    -2.2727 H            1    LIG   0.0000
  70 H           -1.4615     1.9868    -3.8767 H            1    LIG   0.0000
  71 H           -0.7973     0.9158    -2.8382 H            1    LIG   0.0000
  72 H           -3.5465     7.3380    -2.1488 H            1    LIG   0.0000
  73 H           -4.2174     9.5405    -2.1225 H            1    LIG   0.0000
  74 H           -3.7860    10.4157    -3.4320 H            1    LIG   0.0000
  75 H           -5.3372     9.9424    -3.2412 H            1    LIG   0.0000
@<TRIPOS>BOND
   1        1        2 1
   2        2        3 ar
   3        3        4 ar
   4        4        5 ar
   5        5        6 1
   6        6        7 1
   7        7        8 1
   8        8        9 2
   9        9       10 1
  10       10       11 2
  11       11       12 1
  12       12       13 1
  13       13       14 1
  14       14       15 1
  15       15       16 1
  16       16       17 1
  17       17       18 am
  18       18       19 2
  19       18       20 1
  20       20       21 1
  21       20       22 1
  22       16       23 1
  23       23       12 1
  24       11       24 1
  25       24        8 1
  26       24       25 1
  27       25       26 1
  28       26       27 1
  29       27       28 1
  30       27       29 2
  31       29       30 1
  32       30       31 1
  33       30       32 1
  34       32       26 2
  35       32       33 1
  36        5       34 ar
  37       34       35 ar
  38       35        2 ar
  39       35       36 1
  40       16       37 1
  41        1       38 1
  42        1       39 1
  43        1       40 1
  44        3       41 1
  45        4       42 1
  46        7       43 1
  47        7       44 1
  48       13       45 1
  49       13       46 1
  50       14       47 1
  51       14       48 1
  52       15       49 1
  53       15       50 1
  54       17       51 1
  55       20       52 1
  56       21       53 1
  57       21       54 1
  58       21       55 1
  59       22       56 1
  60       22       57 1
  61       22       58 1
  62       23       59 1
  63       23       60 1
  64       25       61 1
  65       25       62 1
  66       28       63 1
  67       28       64 1
  68       28       65 1
  69       31       66 1
  70       31       67 1
  71       31       68 1
  72       33       69 1
  73       33       70 1
  74       33       71 1
  75       34       72 1
  76       36       73 1
  77       36       74 1
  78       36       75 1

@<TRIPOS>MOLECULE

  75   78
SMALL
USER_CHARGES
@<TRIPOS>ATOM
   1 C1          -2.9481     9.7999    -6.1295 C.3          1    LIG   0.0000
   2 C2          -2.9546     8.4955    -5.3489 C.ar         1    LIG   0.0000
   3 C3          -2.8433     8.5482    -3.9635 C.ar         1    LIG   0.0000
   4 C4          -2.8446     7.3798    -3.2094 C.ar         1    LIG   0.0000
   5 C5          -2.9595     6.1571    -3.8622 C.ar         1    LIG   0.0000
   6 O6          -2.9614     5.0211    -3.1334 O.3          1    LIG   0.0000
   7 C7          -2.8412     5.1955    -1.7293 C.3          1    LIG   0.0000
   8 C8          -2.3668     3.8976    -1.0964 C.2          1    LIG   0.0000
   9 N9          -3.1229     2.9252    -0.6475 N.2          1    LIG   0.0000
  10 N10         -2.3651     1.9575    -0.1634 N.2          1    LIG   0.0000
  11 C11         -1.1054     2.2901    -0.3012 C.2          1    LIG   0.0000
  12 N12         -0.0006     1.5253     0.0799 N.pl3        1    LIG   0.0000
  13 C13         -0.1811     0.0779     0.2791 C.3          1    LIG   0.0000
  14 C14          0.7339    -0.4692     1.3659 C.3          1    LIG   0.0000
  15 C15          2.1665     0.0287     1.2287 C.3          1    LIG   0.0000
  16 C16          2.1273     1.5448     1.3615 C.3          1    LIG   0.0000
  17 N17          3.4836     2.1076     1.2984 N.am         1    LIG   0.0000
  18 C18          4.4283     1.7223     2.2128 C.2          1    LIG   0.0000
  19 O19          4.1484     0.9254     3.0652 O.2          1    LIG   0.0000
  20 C20          5.8310     2.3043     2.1475 C.3          1    LIG   0.0000
  21 C21          6.6761     1.7162     3.2657 C.3          1    LIG   0.0000
  22 C22          6.4587     1.9643     0.8056 C.3          1    LIG   0.0000
  23 C23          1.2943     2.2003     0.2693 C.3          1    LIG   0.0000
  24 N24         -1.0771     3.5176    -0.8892 N.pl3        1    LIG   0.0000
  25 C25          0.1225     4.2926    -1.2336 C.3          1    LIG   0.0000
  26 C26          0.0381     5.6680    -0.5933 C.2          1    LIG   0.0000
  27 C27         -0.0584     5.9596     0.7823 C.2          1    LIG   0.0000
  28 C28         -0.0976     4.9427     1.9108 C.3          1    LIG   0.0000
  29 N29         -0.1057     7.2623     0.9187 N.2          1    LIG   0.0000
  30 N30         -0.0524     7.8272    -0.2639 N.pl3        1    LIG   0.0000
  31 C31         -0.0801     9.2767    -0.5129 C.3          1    LIG   0.0000
  32 C32          0.0410     6.8706    -1.2283 C.2          1    LIG   0.0000
  33 C33          0.1297     7.1051    -2.7275 C.3          1    LIG   0.0000
  34 C34         -3.0726     6.0895    -5.2472 C.ar         1    LIG   0.0000
  35 C35         -3.0692     7.2656    -5.9909 C.ar         1    LIG   0.0000
  36 C36         -3.1935     7.1710    -7.5029 C.3          1    LIG   0.0000
  37 H            1.7278     1.7762     2.2485 H            1    LIG   0.0000
  38 H           -2.8582    10.5676    -5.4950 H            1    LIG   0.0000
  39 H           -2.1780     9.8027    -6.7675 H            1    LIG   0.0000
  40 H           -3.8038     9.8874    -6.6395 H            1    LIG   0.0000
  41 H           -2.7616     9.4336    -3.5060 H            1    LIG   0.0000
  42 H           -2.7643     7.4182    -2.2134 H            1    LIG   0.0000
  43 H           -3.7304     5.4471    -1.3473 H            1    LIG   0.0000
  44 H           -2.1793     5.9206    -1.5389 H            1    LIG   0.0000
  45 H            0.0205    -0.3933    -0.5796 H            1    LIG   0.0000
  46 H           -1.1308    -0.0957     0.5396 H            1    LIG   0.0000
  47 H            0.7350    -1.4677     1.3113 H            1    LIG   0.0000
  48 H            0.3796    -0.1845     2.2566 H            1    LIG   0.0000
  49 H            2.7370    -0.3643     1.9499 H            1    LIG   0.0000
  50 H            2.5350    -0.2281     0.3352 H            1    LIG   0.0000
  51 H            3.7169     2.7716     0.5880 H            1    LIG   0.0000
  52 H            5.7848     3.2978     2.2518 H            1    LIG   0.0000
  53 H            7.5989     2.0991     3.2228 H            1    LIG   0.0000
  54 H            6.2631     1.9399     4.1486 H            1    LIG   0.0000
  55 H            6.7222     0.7228     3.1614 H            1    LIG   0.0000
  56 H            7.3815     2.3472     0.7626 H            1    LIG   0.0000
  57 H            6.5048     0.9709     0.7013 H            1    LIG   0.0000
  58 H            5.9027     2.3512     0.0699 H            1    LIG   0.0000
  59 H            1.1272     3.1539     0.5197 H            1    LIG   0.0000
  60 H            1.8046     2.1659    -0.5900 H            1    LIG   0.0000
  61 H            0.1823     4.3905    -2.2270 H            1    LIG   0.0000
  62 H            0.9348     3.8171    -0.8960 H            1    LIG   0.0000
  63 H           -0.0465     4.0196     1.5296 H            1    LIG   0.0000
  64 H            0.6785     5.0940     2.5229 H            1    LIG   0.0000
  65 H           -0.9506     5.0453     2.4225 H            1    LIG   0.0000
  66 H           -0.0269     9.4469    -1.4969 H            1    LIG   0.0000
  67 H           -0.9308     9.6604    -0.1537 H            1    LIG   0.0000
  68 H            0.6987     9.7081    -0.0575 H            1    LIG   0.0000
  69 H            0.1889     6.2255    -3.1995 H            1    LIG   0.0000
  70 H           -0.6852     7.5952    -3.0369 H            1    LIG   0.0000
  71 H            0.9436     7.6488    -2.9323 H            1    LIG   0.0000
  72 H           -3.1556     5.2038    -5.7041 H            1    LIG   0.0000
  73 H           -3.2646     6.2106    -7.7721 H            1    LIG   0.0000
  74 H           -4.0117     7.6624    -7.8015 H            1    LIG   0.0000
  75 H           -2.3859     7.5779    -7.9299 H            1    LIG   0.0000
@<TRIPOS>BOND
   1        1        2 1
   2        2        3 ar
   3        3        4 ar
   4        4        5 ar
   5        5        6 1
   6        6        7 1
   7        7        8 1
   8        8        9 2
   9        9       10 1
  10       10       11 2
  11       11       12 1
  12       12       13 1
  13       13       14 1
  14       14       15 1
  15       15       16 1
  16       16       17 1
  17       17       18 am
  18       18       19 2
  19       18       20 1
  20       20       21 1
  21       20       22 1
  22       16       23 1
  23       23       12 1
  24       11       24 1
  25       24        8 1
  26       24       25 1
  27       25       26 1
  28       26       27 1
  29       27       28 1
  30       27       29 2
  31       29       30 1
  32       30       31 1
  33       30       32 1
  34       32       26 2
  35       32       33 1
  36        5       34 ar
  37       34       35 ar
  38       35        2 ar
  39       35       36 1
  40       16       37 1
  41        1       38 1
  42        1       39 1
  43        1       40 1
  44        3       41 1
  45        4       42 1
  46        7       43 1
  47        7       44 1
  48       13       45 1
  49       13       46 1
  50       14       47 1
  51       14       48 1
  52       15       49 1
  53       15       50 1
  54       17       51 1
  55       20       52 1
  56       21       53 1
  57       21       54 1
  58       21       55 1
  59       22       56 1
  60       22       57 1
  61       22       58 1
  62       23       59 1
  63       23       60 1
  64       25       61 1
  65       25       62 1
  66       28       63 1
  67       28       64 1
  68       28       65 1
  69       31       66 1
  70       31       67 1
  71       31       68 1
  72       33       69 1
  73       33       70 1
  74       33       71 1
  75       34       72 1
  76       36       73 1
  77       36       74 1
  78       36       75 1

@<TRIPOS>MOLECULE

  75   78
SMALL
USER_CHARGES
@<TRIPOS>ATOM
   1 C1          -2.9481     9.7999    -6.1295 C.3          1    LIG   0.0000
   2 C2          -2.9546     8.4955    -5.3489 C.ar         1    LIG   0.0000
   3 C3          -2.8433     8.5482    -3.9635 C.ar         1    LIG   0.0000
   4 C4          -2.8446     7.3798    -3.2094 C.ar         1    LIG   0.0000
   5 C5          -2.9595     6.1571    -3.8622 C.ar         1    LIG   0.0000
   6 O6          -2.9614     5.0211    -3.1334 O.3          1    LIG   0.0000
   7 C7          -2.8412     5.1955    -1.7293 C.3          1    LIG   0.0000
   8 C8          -2.3668     3.8976    -1.0964 C.2          1    LIG   0.0000
   9 N9          -3.1229     2.9252    -0.6475 N.2          1    LIG   0.0000
  10 N10         -2.3651     1.9575    -0.1634 N.2          1    LIG   0.0000
  11 C11         -1.1054     2.2901    -0.3012 C.2          1    LIG   0.0000
  12 N12         -0.0006     1.5253     0.0799 N.pl3        1    LIG   0.0000
  13 C13         -0.1811     0.0779     0.2791 C.3          1    LIG   0.0000
  14 C14          0.7339    -0.4692     1.3659 C.3          1    LIG   0.0000
  15 C15          2.1665     0.0287     1.2287 C.3          1    LIG   0.0000
  16 C16          2.1273     1.5448     1.3615 C.3          1    LIG   0.0000
  17 N17          3.4836     2.1076     1.2984 N.am         1    LIG   0.0000
  18 C18          3.9832     2.8119     2.3620 C.2          1    LIG   0.0000
  19 O19          5.1680     2.9618     2.4791 O.2          1    LIG   0.0000
  20 C20          3.0366     3.4036     3.3937 C.3          1    LIG   0.0000
  21 C21          3.8397     4.1295     4.4607 C.3          1    LIG   0.0000
  22 C22          2.0947     4.3839     2.7138 C.3          1    LIG   0.0000
  23 C23          1.2943     2.2003     0.2693 C.3          1    LIG   0.0000
  24 N24         -1.0771     3.5176    -0.8892 N.pl3        1    LIG   0.0000
  25 C25          0.1225     4.2926    -1.2336 C.3          1    LIG   0.0000
  26 C26          0.0860     4.6535    -2.7091 C.2          1    LIG   0.0000
  27 C27          0.4692     5.8775    -3.2935 C.2          1    LIG   0.0000
  28 C28          1.0010     7.0934    -2.5533 C.3          1    LIG   0.0000
  29 N29          0.2891     5.7830    -4.5883 N.2          1    LIG   0.0000
  30 N30         -0.1849     4.5948    -4.8775 N.pl3        1    LIG   0.0000
  31 C31         -0.5120     4.1189    -6.2304 C.3          1    LIG   0.0000
  32 C32         -0.3215     3.8626    -3.7377 C.2          1    LIG   0.0000
  33 C33         -0.8337     2.4350    -3.6371 C.3          1    LIG   0.0000
  34 C34         -3.0726     6.0895    -5.2472 C.ar         1    LIG   0.0000
  35 C35         -3.0692     7.2656    -5.9909 C.ar         1    LIG   0.0000
  36 C36         -3.1935     7.1710    -7.5029 C.3          1    LIG   0.0000
  37 H            1.7278     1.7762     2.2485 H            1    LIG   0.0000
  38 H           -2.8582    10.5676    -5.4950 H            1    LIG   0.0000
  39 H           -2.1780     9.8027    -6.7675 H            1    LIG   0.0000
  40 H           -3.8038     9.8874    -6.6395 H            1    LIG   0.0000
  41 H           -2.7616     9.4336    -3.5060 H            1    LIG   0.0000
  42 H           -2.7643     7.4182    -2.2134 H            1    LIG   0.0000
  43 H           -3.7304     5.4471    -1.3473 H            1    LIG   0.0000
  44 H           -2.1793     5.9206    -1.5389 H            1    LIG   0.0000
  45 H            0.0205    -0.3933    -0.5796 H            1    LIG   0.0000
  46 H           -1.1308    -0.0957     0.5396 H            1    LIG   0.0000
  47 H            0.7350    -1.4677     1.3113 H            1    LIG   0.0000
  48 H            0.3796    -0.1845     2.2566 H            1    LIG   0.0000
  49 H            2.7370    -0.3643     1.9499 H            1    LIG   0.0000
  50 H            2.5350    -0.2281     0.3352 H            1    LIG   0.0000
  51 H            4.0418     1.9763     0.4791 H            1    LIG   0.0000
  52 H            2.5052     2.6702     3.8178 H            1    LIG   0.0000
  53 H            3.2170     4.5187     5.1394 H            1    LIG   0.0000
  54 H            4.4594     3.4846     4.9079 H            1    LIG   0.0000
  55 H            4.3711     4.8628     4.0366 H            1    LIG   0.0000
  56 H            1.4720     4.7731     3.3926 H            1    LIG   0.0000
  57 H            2.6261     5.1172     2.2898 H            1    LIG   0.0000
  58 H            1.5664     3.9063     2.0119 H            1    LIG   0.0000
  59 H            1.1272     3.1539     0.5197 H            1    LIG   0.0000
  60 H            1.8046     2.1659    -0.5900 H            1    LIG   0.0000
  61 H            0.9382     3.7460    -1.0441 H            1    LIG   0.0000
  62 H            0.1474     5.1292    -0.6863 H            1    LIG   0.0000
  63 H            1.0384     6.8971    -1.5735 H            1    LIG   0.0000
  64 H            1.9190     7.3105    -2.8851 H            1    LIG   0.0000
  65 H            0.3954     7.8728    -2.7142 H            1    LIG   0.0000
  66 H           -0.8552     3.1809    -6.1799 H            1    LIG   0.0000
  67 H           -1.2128     4.7091    -6.6310 H            1    LIG   0.0000
  68 H            0.3096     4.1430    -6.8000 H            1    LIG   0.0000
  69 H           -0.8290     2.1459    -2.6798 H            1    LIG   0.0000
  70 H           -1.7666     2.3897    -3.9944 H            1    LIG   0.0000
  71 H           -0.2426     1.8304    -4.1709 H            1    LIG   0.0000
  72 H           -3.1556     5.2038    -5.7041 H            1    LIG   0.0000
  73 H           -3.2646     6.2106    -7.7721 H            1    LIG   0.0000
  74 H           -4.0117     7.6624    -7.8015 H            1    LIG   0.0000
  75 H           -2.3859     7.5779    -7.9299 H            1    LIG   0.0000
@<TRIPOS>BOND
   1        1        2 1
   2        2        3 ar
   3        3        4 ar
   4        4        5 ar
   5        5        6 1
   6        6        7 1
   7        7        8 1
   8        8        9 2
   9        9       10 1
  10       10       11 2
  11       11       12 1
  12       12       13 1
  13       13       14 1
  14       14       15 1
  15       15       16 1
  16       16       17 1
  17       17       18 am
  18       18       19 2
  19       18       20 1
  20       20       21 1
  21       20       22 1
  22       16       23 1
  23       23       12 1
  24       11       24 1
  25       24        8 1
  26       24       25 1
  27       25       26 1
  28       26       27 1
  29       27       28 1
  30       27       29 2
  31       29       30 1
  32       30       31 1
  33       30       32 1
  34       32       26 2
  35       32       33 1
  36        5       34 ar
  37       34       35 ar
  38       35        2 ar
  39       35       36 1
  40       16       37 1
  41        1       38 1
  42        1       39 1
  43        1       40 1
  44        3       41 1
  45        4       42 1
  46        7       43 1
  47        7       44 1
  48       13       45 1
  49       13       46 1
  50       14       47 1
  51       14       48 1
  52       15       49 1
  53       15       50 1
  54       17       51 1
  55       20       52 1
  56       21       53 1
  57       21       54 1
  58       21       55 1
  59       22       56 1
  60       22       57 1
  61       22       58 1
  62       23       59 1
  63       23       60 1
  64       25       61 1
  65       25       62 1
  66       28       63 1
  67       28       64 1
  68       28       65 1
  69       31       66 1
  70       31       67 1
  71       31       68 1
  72       33       69 1
  73       33       70 1
  74       33       71 1
  75       34       72 1
  76       36       73 1
  77       36       74 1
  78       36       75 1

@<TRIPOS>MOLECULE

  75   78
SMALL
USER_CHARGES
@<TRIPOS>ATOM
   1 C1          -2.9588     9.7364    -6.2285 C.3          1    LIG   0.0000
   2 C2          -2.9566     8.4831    -5.3682 C.ar         1    LIG   0.0000
   3 C3          -3.0699     7.2461    -5.9937 C.ar         1    LIG   0.0000
   4 C4          -3.0724     6.0736    -5.2459 C.ar         1    LIG   0.0000
   5 C5          -2.9595     6.1571    -3.8622 C.ar         1    LIG   0.0000
   6 O6          -2.9614     5.0211    -3.1334 O.3          1    LIG   0.0000
   7 C7          -2.8412     5.1955    -1.7293 C.3          1    LIG   0.0000
   8 C8          -2.3668     3.8976    -1.0964 C.2          1    LIG   0.0000
   9 N9          -3.1229     2.9252    -0.6475 N.2          1    LIG   0.0000
  10 N10         -2.3651     1.9575    -0.1634 N.2          1    LIG   0.0000
  11 C11         -1.1054     2.2901    -0.3012 C.2          1    LIG   0.0000
  12 N12         -0.0006     1.5253     0.0799 N.pl3        1    LIG   0.0000
  13 C13         -0.1811     0.0779     0.2791 C.3          1    LIG   0.0000
  14 C14          0.7339    -0.4692     1.3659 C.3          1    LIG   0.0000
  15 C15          2.1665     0.0287     1.2287 C.3          1    LIG   0.0000
  16 C16          2.1273     1.5448     1.3615 C.3          1    LIG   0.0000
  17 N17          3.4836     2.1076     1.2984 N.am         1    LIG   0.0000
  18 C18          4.4283     1.7223     2.2128 C.2          1    LIG   0.0000
  19 O19          4.0903     1.2283     3.2528 O.2          1    LIG   0.0000
  20 C20          5.9046     1.9208     1.9099 C.3          1    LIG   0.0000
  21 C21          6.7341     1.4136     3.0782 C.3          1    LIG   0.0000
  22 C22          6.2725     1.1477     0.6539 C.3          1    LIG   0.0000
  23 C23          1.2943     2.2003     0.2693 C.3          1    LIG   0.0000
  24 N24         -1.0771     3.5176    -0.8892 N.pl3        1    LIG   0.0000
  25 C25          0.1225     4.2926    -1.2336 C.3          1    LIG   0.0000
  26 C26          0.0860     4.6535    -2.7091 C.2          1    LIG   0.0000
  27 C27          0.4692     5.8775    -3.2935 C.2          1    LIG   0.0000
  28 C28          1.0010     7.0934    -2.5533 C.3          1    LIG   0.0000
  29 N29          0.2891     5.7830    -4.5883 N.2          1    LIG   0.0000
  30 N30         -0.1849     4.5948    -4.8775 N.pl3        1    LIG   0.0000
  31 C31         -0.5120     4.1189    -6.2304 C.3          1    LIG   0.0000
  32 C32         -0.3215     3.8626    -3.7377 C.2          1    LIG   0.0000
  33 C33         -0.8337     2.4350    -3.6371 C.3          1    LIG   0.0000
  34 C34         -2.8444     7.3876    -3.2233 C.ar         1    LIG   0.0000
  35 C35         -2.8440     8.5538    -3.9825 C.ar         1    LIG   0.0000
  36 C36         -2.7176     9.8885    -3.2661 C.3          1    LIG   0.0000
  37 H            1.7278     1.7762     2.2485 H            1    LIG   0.0000
  38 H           -3.0479     9.4798    -7.1910 H            1    LIG   0.0000
  39 H           -3.7279    10.3193    -5.9664 H            1    LIG   0.0000
  40 H           -2.1022    10.2344    -6.0942 H            1    LIG   0.0000
  41 H           -3.1502     7.1994    -6.9894 H            1    LIG   0.0000
  42 H           -3.1542     5.1843    -5.6961 H            1    LIG   0.0000
  43 H           -3.7304     5.4471    -1.3473 H            1    LIG   0.0000
  44 H           -2.1793     5.9206    -1.5389 H            1    LIG   0.0000
  45 H            0.0205    -0.3933    -0.5796 H            1    LIG   0.0000
  46 H           -1.1308    -0.0957     0.5396 H            1    LIG   0.0000
  47 H            0.7350    -1.4677     1.3113 H            1    LIG   0.0000
  48 H            0.3796    -0.1845     2.2566 H            1    LIG   0.0000
  49 H            2.7370    -0.3643     1.9499 H            1    LIG   0.0000
  50 H            2.5350    -0.2281     0.3352 H            1    LIG   0.0000
  51 H            3.7169     2.7716     0.5880 H            1    LIG   0.0000
  52 H            6.0880     2.8936     1.7683 H            1    LIG   0.0000
  53 H            7.7053     1.5441     2.8789 H            1    LIG   0.0000
  54 H            6.4921     1.9222     3.9045 H            1    LIG   0.0000
  55 H            6.5507     0.4408     3.2198 H            1    LIG   0.0000
  56 H            7.2437     1.2783     0.4546 H            1    LIG   0.0000
  57 H            6.0891     0.1749     0.7955 H            1    LIG   0.0000
  58 H            5.7267     1.4814    -0.1147 H            1    LIG   0.0000
  59 H            1.1272     3.1539     0.5197 H            1    LIG   0.0000
  60 H            1.8046     2.1659    -0.5900 H            1    LIG   0.0000
  61 H            0.9382     3.7460    -1.0441 H            1    LIG   0.0000
  62 H            0.1474     5.1292    -0.6863 H            1    LIG   0.0000
  63 H            1.0384     6.8971    -1.5735 H            1    LIG   0.0000
  64 H            1.9190     7.3105    -2.8851 H            1    LIG   0.0000
  65 H            0.3954     7.8728    -2.7142 H            1    LIG   0.0000
  66 H           -0.8552     3.1809    -6.1799 H            1    LIG   0.0000
  67 H           -1.2128     4.7091    -6.6310 H            1    LIG   0.0000
  68 H            0.3096     4.1430    -6.8000 H            1    LIG   0.0000
  69 H           -0.8290     2.1459    -2.6798 H            1    LIG   0.0000
  70 H           -1.7666     2.3897    -3.9944 H            1    LIG   0.0000
  71 H           -0.2426     1.8304    -4.1709 H            1    LIG   0.0000
  72 H           -2.7628     7.4336    -2.2277 H            1    LIG   0.0000
  73 H           -2.6483     9.7328    -2.2808 H            1    LIG   0.0000
  74 H           -1.8978    10.3628    -3.5871 H            1    LIG   0.0000
  75 H           -3.5235    10.4481    -3.4593 H            1    LIG   0.0000
@<TRIPOS>BOND
   1        1        2 1
   2        2        3 ar
   3        3        4 ar
   4        4        5 ar
   5        5        6 1
   6        6        7 1
   7        7        8 1
   8        8        9 2
   9        9       10 1
  10       10       11 2
  11       11       12 1
  12       12       13 1
  13       13       14 1
  14       14       15 1
  15       15       16 1
  16       16       17 1
  17       17       18 am
  18       18       19 2
  19       18       20 1
  20       20       21 1
  21       20       22 1
  22       16       23 1
  23       23       12 1
  24       11       24 1
  25       24        8 1
  26       24       25 1
  27       25       26 1
  28       26       27 1
  29       27       28 1
  30       27       29 2
  31       29       30 1
  32       30       31 1
  33       30       32 1
  34       32       26 2
  35       32       33 1
  36        5       34 ar
  37       34       35 ar
  38       35        2 ar
  39       35       36 1
  40       16       37 1
  41        1       38 1
  42        1       39 1
  43        1       40 1
  44        3       41 1
  45        4       42 1
  46        7       43 1
  47        7       44 1
  48       13       45 1
  49       13       46 1
  50       14       47 1
  51       14       48 1
  52       15       49 1
  53       15       50 1
  54       17       51 1
  55       20       52 1
  56       21       53 1
  57       21       54 1
  58       21       55 1
  59       22       56 1
  60       22       57 1
  61       22       58 1
  62       23       59 1
  63       23       60 1
  64       25       61 1
  65       25       62 1
  66       28       63 1
  67       28       64 1
  68       28       65 1
  69       31       66 1
  70       31       67 1
  71       31       68 1
  72       33       69 1
  73       33       70 1
  74       33       71 1
  75       34       72 1
  76       36       73 1
  77       36       74 1
  78       36       75 1

@<TRIPOS>MOLECULE

  75   78
SMALL
USER_CHARGES
@<TRIPOS>ATOM
   1 C1          -2.9786     9.7393    -6.2240 C.3          1    LIG   0.0000
   2 C2          -2.9604     8.4837    -5.3673 C.ar         1    LIG   0.0000
   3 C3          -3.4755     7.3068    -5.9002 C.ar         1    LIG   0.0000
   4 C4          -3.4793     6.1345    -5.1521 C.ar         1    LIG   0.0000
   5 C5          -2.9595     6.1571    -3.8622 C.ar         1    LIG   0.0000
   6 O6          -2.9614     5.0211    -3.1334 O.3          1    LIG   0.0000
   7 C7          -2.8412     5.1955    -1.7293 C.3          1    LIG   0.0000
   8 C8          -2.3668     3.8976    -1.0964 C.2          1    LIG   0.0000
   9 N9          -3.1229     2.9252    -0.6475 N.2          1    LIG   0.0000
  10 N10         -2.3651     1.9575    -0.1634 N.2          1    LIG   0.0000
  11 C11         -1.1054     2.2901    -0.3012 C.2          1    LIG   0.0000
  12 N12         -0.0006     1.5253     0.0799 N.pl3        1    LIG   0.0000
  13 C13         -0.1811     0.0779     0.2791 C.3          1    LIG   0.0000
  14 C14          0.7339    -0.4692     1.3659 C.3          1    LIG   0.0000
  15 C15          2.1665     0.0287     1.2287 C.3          1    LIG   0.0000
  16 C16          2.1273     1.5448     1.3615 C.3          1    LIG   0.0000
  17 N17          3.4836     2.1076     1.2984 N.am         1    LIG   0.0000
  18 C18          3.9832     2.8119     2.3620 C.2          1    LIG   0.0000
  19 O19          5.1631     2.8119     2.5807 O.2          1    LIG   0.0000
  20 C20          3.0428     3.5934     3.2650 C.3          1    LIG   0.0000
  21 C21          3.8446     4.2793     4.3591 C.3          1    LIG   0.0000
  22 C22          2.3061     4.6399     2.4450 C.3          1    LIG   0.0000
  23 C23          1.2943     2.2003     0.2693 C.3          1    LIG   0.0000
  24 N24         -1.0771     3.5176    -0.8892 N.pl3        1    LIG   0.0000
  25 C25          0.1225     4.2926    -1.2336 C.3          1    LIG   0.0000
  26 C26          0.2259     5.5000    -0.3169 C.2          1    LIG   0.0000
  27 C27          0.6224     6.8048    -0.6730 C.2          1    LIG   0.0000
  28 C28          1.0301     7.2672    -2.0619 C.3          1    LIG   0.0000
  29 N29          0.5755     7.5512     0.4033 N.2          1    LIG   0.0000
  30 N30          0.1847     6.8238     1.4223 N.pl3        1    LIG   0.0000
  31 C31          0.0118     7.3152     2.7980 C.3          1    LIG   0.0000
  32 C32         -0.0458     5.5452     1.0149 C.2          1    LIG   0.0000
  33 C33         -0.5152     4.3907     1.8850 C.3          1    LIG   0.0000
  34 C34         -2.4401     7.3269    -3.3169 C.ar         1    LIG   0.0000
  35 C35         -2.4427     8.4937    -4.0751 C.ar         1    LIG   0.0000
  36 C36         -1.8712     9.7616    -3.4617 C.3          1    LIG   0.0000
  37 H            1.7278     1.7762     2.2485 H            1    LIG   0.0000
  38 H           -3.3867     9.5306    -7.1128 H            1    LIG   0.0000
  39 H           -3.5182    10.4466    -5.7674 H            1    LIG   0.0000
  40 H           -2.0429    10.0667    -6.3555 H            1    LIG   0.0000
  41 H           -3.8462     7.3035    -6.8289 H            1    LIG   0.0000
  42 H           -3.8500     5.2885    -5.5355 H            1    LIG   0.0000
  43 H           -3.7304     5.4471    -1.3473 H            1    LIG   0.0000
  44 H           -2.1793     5.9206    -1.5389 H            1    LIG   0.0000
  45 H            0.0205    -0.3933    -0.5796 H            1    LIG   0.0000
  46 H           -1.1308    -0.0957     0.5396 H            1    LIG   0.0000
  47 H            0.7350    -1.4677     1.3113 H            1    LIG   0.0000
  48 H            0.3796    -0.1845     2.2566 H            1    LIG   0.0000
  49 H            2.7370    -0.3643     1.9499 H            1    LIG   0.0000
  50 H            2.5350    -0.2281     0.3352 H            1    LIG   0.0000
  51 H            4.0418     1.9763     0.4791 H            1    LIG   0.0000
  52 H            2.3815     2.9678     3.6788 H            1    LIG   0.0000
  53 H            3.2260     4.7935     4.9532 H            1    LIG   0.0000
  54 H            4.3293     3.5908     4.8986 H            1    LIG   0.0000
  55 H            4.5060     4.9049     3.9454 H            1    LIG   0.0000
  56 H            1.6874     5.1541     3.0391 H            1    LIG   0.0000
  57 H            2.9675     5.2655     2.0312 H            1    LIG   0.0000
  58 H            1.7786     4.1887     1.7252 H            1    LIG   0.0000
  59 H            1.1272     3.1539     0.5197 H            1    LIG   0.0000
  60 H            1.8046     2.1659    -0.5900 H            1    LIG   0.0000
  61 H            0.0598     4.5995    -2.1832 H            1    LIG   0.0000
  62 H            0.9337     3.7186    -1.1215 H            1    LIG   0.0000
  63 H            0.9778     6.4974    -2.6982 H            1    LIG   0.0000
  64 H            0.4135     7.9934    -2.3659 H            1    LIG   0.0000
  65 H            1.9673     7.6149    -2.0358 H            1    LIG   0.0000
  66 H           -0.2930     6.5646     3.3842 H            1    LIG   0.0000
  67 H            0.8830     7.6703     3.1370 H            1    LIG   0.0000
  68 H           -0.6721     8.0447     2.8079 H            1    LIG   0.0000
  69 H           -0.6015     3.5658     1.3263 H            1    LIG   0.0000
  70 H            0.1500     4.2311     2.6145 H            1    LIG   0.0000
  71 H           -1.4029     4.6155     2.2868 H            1    LIG   0.0000
  72 H           -2.0684     7.3292    -2.3885 H            1    LIG   0.0000
  73 H           -1.5512     9.5683    -2.5342 H            1    LIG   0.0000
  74 H           -1.1056    10.0852    -4.0178 H            1    LIG   0.0000
  75 H           -2.5807    10.4656    -3.4297 H            1    LIG   0.0000
@<TRIPOS>BOND
   1        1        2 1
   2        2        3 ar
   3        3        4 ar
   4        4        5 ar
   5        5        6 1
   6        6        7 1
   7        7        8 1
   8        8        9 2
   9        9       10 1
  10       10       11 2
  11       11       12 1
  12       12       13 1
  13       13       14 1
  14       14       15 1
  15       15       16 1
  16       16       17 1
  17       17       18 am
  18       18       19 2
  19       18       20 1
  20       20       21 1
  21       20       22 1
  22       16       23 1
  23       23       12 1
  24       11       24 1
  25       24        8 1
  26       24       25 1
  27       25       26 1
  28       26       27 1
  29       27       28 1
  30       27       29 2
  31       29       30 1
  32       30       31 1
  33       30       32 1
  34       32       26 2
  35       32       33 1
  36        5       34 ar
  37       34       35 ar
  38       35        2 ar
  39       35       36 1
  40       16       37 1
  41        1       38 1
  42        1       39 1
  43        1       40 1
  44        3       41 1
  45        4       42 1
  46        7       43 1
  47        7       44 1
  48       13       45 1
  49       13       46 1
  50       14       47 1
  51       14       48 1
  52       15       49 1
  53       15       50 1
  54       17       51 1
  55       20       52 1
  56       21       53 1
  57       21       54 1
  58       21       55 1
  59       22       56 1
  60       22       57 1
  61       22       58 1
  62       23       59 1
  63       23       60 1
  64       25       61 1
  65       25       62 1
  66       28       63 1
  67       28       64 1
  68       28       65 1
  69       31       66 1
  70       31       67 1
  71       31       68 1
  72       33       69 1
  73       33       70 1
  74       33       71 1
  75       34       72 1
  76       36       73 1
  77       36       74 1
  78       36       75 1

@<TRIPOS>MOLECULE

  75   78
SMALL
USER_CHARGES
@<TRIPOS>ATOM
   1 C1          -2.9384     9.7373    -6.2271 C.3          1    LIG   0.0000
   2 C2          -2.9526     8.4833    -5.3679 C.ar         1    LIG   0.0000
   3 C3          -2.6506     7.2639    -5.9648 C.ar         1    LIG   0.0000
   4 C4          -2.6518     6.0914    -5.2170 C.ar         1    LIG   0.0000
   5 C5          -2.9595     6.1571    -3.8622 C.ar         1    LIG   0.0000
   6 O6          -2.9614     5.0211    -3.1334 O.3          1    LIG   0.0000
   7 C7          -2.8412     5.1955    -1.7293 C.3          1    LIG   0.0000
   8 C8          -2.3668     3.8976    -1.0964 C.2          1    LIG   0.0000
   9 N9          -3.1229     2.9252    -0.6475 N.2          1    LIG   0.0000
  10 N10         -2.3651     1.9575    -0.1634 N.2          1    LIG   0.0000
  11 C11         -1.1054     2.2901    -0.3012 C.2          1    LIG   0.0000
  12 N12         -0.0006     1.5253     0.0799 N.pl3        1    LIG   0.0000
  13 C13         -0.1811     0.0779     0.2791 C.3          1    LIG   0.0000
  14 C14          0.7339    -0.4692     1.3659 C.3          1    LIG   0.0000
  15 C15          2.1665     0.0287     1.2287 C.3          1    LIG   0.0000
  16 C16          2.1273     1.5448     1.3615 C.3          1    LIG   0.0000
  17 N17          3.4836     2.1076     1.2984 N.am         1    LIG   0.0000
  18 C18          3.6619     3.4343     1.0070 C.2          1    LIG   0.0000
  19 O19          2.7564     4.2079     1.1542 O.2          1    LIG   0.0000
  20 C20          5.0066     3.9264     0.4973 C.3          1    LIG   0.0000
  21 C21          4.9382     5.4251     0.2529 C.3          1    LIG   0.0000
  22 C22          6.0800     3.6303     1.5320 C.3          1    LIG   0.0000
  23 C23          1.2943     2.2003     0.2693 C.3          1    LIG   0.0000
  24 N24         -1.0771     3.5176    -0.8892 N.pl3        1    LIG   0.0000
  25 C25          0.1225     4.2926    -1.2336 C.3          1    LIG   0.0000
  26 C26          0.0381     5.6680    -0.5933 C.2          1    LIG   0.0000
  27 C27         -0.0584     5.9596     0.7823 C.2          1    LIG   0.0000
  28 C28         -0.0976     4.9427     1.9108 C.3          1    LIG   0.0000
  29 N29         -0.1057     7.2623     0.9187 N.2          1    LIG   0.0000
  30 N30         -0.0524     7.8272    -0.2639 N.pl3        1    LIG   0.0000
  31 C31         -0.0801     9.2767    -0.5129 C.3          1    LIG   0.0000
  32 C32          0.0410     6.8706    -1.2283 C.2          1    LIG   0.0000
  33 C33          0.1297     7.1051    -2.7275 C.3          1    LIG   0.0000
  34 C34         -3.2625     7.3700    -3.2518 C.ar         1    LIG   0.0000
  35 C35         -3.2588     8.5363    -4.0109 C.ar         1    LIG   0.0000
  36 C36         -3.5927     9.8516    -3.3260 C.3          1    LIG   0.0000
  37 H            1.7278     1.7762     2.2485 H            1    LIG   0.0000
  38 H           -2.6976     9.4947    -7.1669 H            1    LIG   0.0000
  39 H           -3.8442    10.1608    -6.2138 H            1    LIG   0.0000
  40 H           -2.2640    10.3812    -5.8658 H            1    LIG   0.0000
  41 H           -2.4308     7.2300    -6.9397 H            1    LIG   0.0000
  42 H           -2.4349     5.2149    -5.6466 H            1    LIG   0.0000
  43 H           -3.7304     5.4471    -1.3473 H            1    LIG   0.0000
  44 H           -2.1793     5.9206    -1.5389 H            1    LIG   0.0000
  45 H            0.0205    -0.3933    -0.5796 H            1    LIG   0.0000
  46 H           -1.1308    -0.0957     0.5396 H            1    LIG   0.0000
  47 H            0.7350    -1.4677     1.3113 H            1    LIG   0.0000
  48 H            0.3796    -0.1845     2.2566 H            1    LIG   0.0000
  49 H            2.7370    -0.3643     1.9499 H            1    LIG   0.0000
  50 H            2.5350    -0.2281     0.3352 H            1    LIG   0.0000
  51 H            4.2763     1.5220     1.4681 H            1    LIG   0.0000
  52 H            5.2302     3.4591    -0.3581 H            1    LIG   0.0000
  53 H            5.8229     5.7489    -0.0825 H            1    LIG   0.0000
  54 H            4.2321     5.6199    -0.4279 H            1    LIG   0.0000
  55 H            4.7146     5.8925     1.1082 H            1    LIG   0.0000
  56 H            6.9647     3.9541     1.1966 H            1    LIG   0.0000
  57 H            5.8564     4.0977     2.3873 H            1    LIG   0.0000
  58 H            6.1250     2.6443     1.6928 H            1    LIG   0.0000
  59 H            1.1272     3.1539     0.5197 H            1    LIG   0.0000
  60 H            1.8046     2.1659    -0.5900 H            1    LIG   0.0000
  61 H            0.1823     4.3905    -2.2270 H            1    LIG   0.0000
  62 H            0.9348     3.8171    -0.8960 H            1    LIG   0.0000
  63 H           -0.0465     4.0196     1.5296 H            1    LIG   0.0000
  64 H            0.6785     5.0940     2.5229 H            1    LIG   0.0000
  65 H           -0.9506     5.0453     2.4225 H            1    LIG   0.0000
  66 H           -0.0269     9.4469    -1.4969 H            1    LIG   0.0000
  67 H           -0.9308     9.6604    -0.1537 H            1    LIG   0.0000
  68 H            0.6987     9.7081    -0.0575 H            1    LIG   0.0000
  69 H            0.1889     6.2255    -3.1995 H            1    LIG   0.0000
  70 H           -0.6852     7.5952    -3.0369 H            1    LIG   0.0000
  71 H            0.9436     7.6488    -2.9323 H            1    LIG   0.0000
  72 H           -3.4809     7.4035    -2.2765 H            1    LIG   0.0000
  73 H           -3.7825     9.6848    -2.3585 H            1    LIG   0.0000
  74 H           -2.8175    10.4776    -3.4105 H            1    LIG   0.0000
  75 H           -4.3977    10.2576    -3.7585 H            1    LIG   0.0000
@<TRIPOS>BOND
   1        1        2 1
   2        2        3 ar
   3        3        4 ar
   4        4        5 ar
   5        5        6 1
   6        6        7 1
   7        7        8 1
   8        8        9 2
   9        9       10 1
  10       10       11 2
  11       11       12 1
  12       12       13 1
  13       13       14 1
  14       14       15 1
  15       15       16 1
  16       16       17 1
  17       17       18 am
  18       18       19 2
  19       18       20 1
  20       20       21 1
  21       20       22 1
  22       16       23 1
  23       23       12 1
  24       11       24 1
  25       24        8 1
  26       24       25 1
  27       25       26 1
  28       26       27 1
  29       27       28 1
  30       27       29 2
  31       29       30 1
  32       30       31 1
  33       30       32 1
  34       32       26 2
  35       32       33 1
  36        5       34 ar
  37       34       35 ar
  38       35        2 ar
  39       35       36 1
  40       16       37 1
  41        1       38 1
  42        1       39 1
  43        1       40 1
  44        3       41 1
  45        4       42 1
  46        7       43 1
  47        7       44 1
  48       13       45 1
  49       13       46 1
  50       14       47 1
  51       14       48 1
  52       15       49 1
  53       15       50 1
  54       17       51 1
  55       20       52 1
  56       21       53 1
  57       21       54 1
  58       21       55 1
  59       22       56 1
  60       22       57 1
  61       22       58 1
  62       23       59 1
  63       23       60 1
  64       25       61 1
  65       25       62 1
  66       28       63 1
  67       28       64 1
  68       28       65 1
  69       31       66 1
  70       31       67 1
  71       31       68 1
  72       33       69 1
  73       33       70 1
  74       33       71 1
  75       34       72 1
  76       36       73 1
  77       36       74 1
  78       36       75 1

