@<TRIPOS>MOLECULE
*****
 75 78 0 0 0
SMALL
USER_CHARGES

@<TRIPOS>ATOM
      1 C1         -2.9786    9.7393   -6.2240 C.3     1  LIG1        0.0000
      2 C2         -2.9604    8.4837   -5.3673 C.3     1  LIG1        0.0000
      3 C3         -3.4755    7.3068   -5.9002 C.3     1  LIG1        0.0000
      4 C4         -3.4793    6.1345   -5.1521 C.3     1  LIG1        0.0000
      5 C5         -2.9595    6.1571   -3.8622 C.3     1  LIG1        0.0000
      6 O6         -2.9614    5.0211   -3.1334 O.2     1  LIG1        0.0000
      7 C7         -2.8412    5.1955   -1.7293 C.3     1  LIG1        0.0000
      8 C8         -2.3668    3.8976   -1.0964 C.2     1  LIG1        0.0000
      9 N9         -3.1229    2.9252   -0.6475 N.2     1  LIG1        0.0000
     10 N10        -2.3651    1.9575   -0.1634 N.2     1  LIG1        0.0000
     11 C11        -1.1054    2.2901   -0.3012 C.cat   1  LIG1        0.0000
     12 N12        -0.0006    1.5253    0.0799 N.pl3   1  LIG1        0.0000
     13 C13        -0.1811    0.0779    0.2791 C.3     1  LIG1        0.0000
     14 C14         0.7339   -0.4692    1.3659 C.3     1  LIG1        0.0000
     15 C15         2.1665    0.0287    1.2287 C.3     1  LIG1        0.0000
     16 C16         2.1273    1.5448    1.3615 C.3     1  LIG1        0.0000
     17 N17         3.4836    2.1076    1.2984 N.am    1  LIG1        0.0000
     18 C18         3.9832    2.8119    2.3620 C.2     1  LIG1        0.0000
     19 O19         5.1631    2.8119    2.5807 O.2     1  LIG1        0.0000
     20 C20         3.0428    3.5934    3.2650 C.3     1  LIG1        0.0000
     21 C21         3.8446    4.2793    4.3591 C.3     1  LIG1        0.0000
     22 C22         2.3061    4.6399    2.4450 C.3     1  LIG1        0.0000
     23 C23         1.2943    2.2003    0.2693 C.3     1  LIG1        0.0000
     24 N24        -1.0771    3.5176   -0.8892 N.pl3   1  LIG1        0.0000
     25 C25         0.1225    4.2926   -1.2336 C.3     1  LIG1        0.0000
     26 C26         0.2259    5.5000   -0.3169 C.2     1  LIG1        0.0000
     27 C27         0.6224    6.8048   -0.6730 C.2     1  LIG1        0.0000
     28 C28         1.0301    7.2672   -2.0619 C.3     1  LIG1        0.0000
     29 N29         0.5755    7.5512    0.4033 N.2     1  LIG1        0.0000
     30 N30         0.1847    6.8238    1.4223 N.pl3   1  LIG1        0.0000
     31 C31         0.0118    7.3152    2.7980 C.3     1  LIG1        0.0000
     32 C32        -0.0458    5.5452    1.0149 C.2     1  LIG1        0.0000
     33 C33        -0.5152    4.3907    1.8850 C.3     1  LIG1        0.0000
     34 C34        -2.4401    7.3269   -3.3169 C.3     1  LIG1        0.0000
     35 C35        -2.4427    8.4937   -4.0751 C.3     1  LIG1        0.0000
     36 C36        -1.8712    9.7616   -3.4617 C.3     1  LIG1        0.0000
     37 H           1.7278    1.7762    2.2485 H       1  LIG1        0.0000
     38 H          -3.3867    9.5306   -7.1128 H       1  LIG1        0.0000
     39 H          -3.5182   10.4466   -5.7674 H       1  LIG1        0.0000
     40 H          -2.0429   10.0667   -6.3555 H       1  LIG1        0.0000
     41 H          -3.8462    7.3035   -6.8289 H       1  LIG1        0.0000
     42 H          -3.8500    5.2885   -5.5355 H       1  LIG1        0.0000
     43 H          -3.7304    5.4471   -1.3473 H       1  LIG1        0.0000
     44 H          -2.1793    5.9206   -1.5389 H       1  LIG1        0.0000
     45 H           0.0205   -0.3933   -0.5796 H       1  LIG1        0.0000
     46 H          -1.1308   -0.0957    0.5396 H       1  LIG1        0.0000
     47 H           0.7350   -1.4677    1.3113 H       1  LIG1        0.0000
     48 H           0.3796   -0.1845    2.2566 H       1  LIG1        0.0000
     49 H           2.7370   -0.3643    1.9499 H       1  LIG1        0.0000
     50 H           2.5350   -0.2281    0.3352 H       1  LIG1        0.0000
     51 H           4.0418    1.9763    0.4791 H       1  LIG1        0.0000
     52 H           2.3815    2.9678    3.6788 H       1  LIG1        0.0000
     53 H           3.2260    4.7935    4.9532 H       1  LIG1        0.0000
     54 H           4.3293    3.5908    4.8986 H       1  LIG1        0.0000
     55 H           4.5060    4.9049    3.9454 H       1  LIG1        0.0000
     56 H           1.6874    5.1541    3.0391 H       1  LIG1        0.0000
     57 H           2.9675    5.2655    2.0312 H       1  LIG1        0.0000
     58 H           1.7786    4.1887    1.7252 H       1  LIG1        0.0000
     59 H           1.1272    3.1539    0.5197 H       1  LIG1        0.0000
     60 H           1.8046    2.1659   -0.5900 H       1  LIG1        0.0000
     61 H           0.0598    4.5995   -2.1832 H       1  LIG1        0.0000
     62 H           0.9337    3.7186   -1.1215 H       1  LIG1        0.0000
     63 H           0.9778    6.4974   -2.6982 H       1  LIG1        0.0000
     64 H           0.4135    7.9934   -2.3659 H       1  LIG1        0.0000
     65 H           1.9673    7.6149   -2.0358 H       1  LIG1        0.0000
     66 H          -0.2930    6.5646    3.3842 H       1  LIG1        0.0000
     67 H           0.8830    7.6703    3.1370 H       1  LIG1        0.0000
     68 H          -0.6721    8.0447    2.8079 H       1  LIG1        0.0000
     69 H          -0.6015    3.5658    1.3263 H       1  LIG1        0.0000
     70 H           0.1500    4.2311    2.6145 H       1  LIG1        0.0000
     71 H          -1.4029    4.6155    2.2868 H       1  LIG1        0.0000
     72 H          -2.0684    7.3292   -2.3885 H       1  LIG1        0.0000
     73 H          -1.5512    9.5683   -2.5342 H       1  LIG1        0.0000
     74 H          -1.1056   10.0852   -4.0178 H       1  LIG1        0.0000
     75 H          -2.5807   10.4656   -3.4297 H       1  LIG1        0.0000
@<TRIPOS>BOND
     1     1     2    1
     2     2     3   ar
     3     3     4   ar
     4     4     5   ar
     5     5     6    1
     6     6     7    1
     7     7     8    1
     8     8     9    2
     9     9    10    1
    10    10    11    2
    11    11    12    1
    12    12    13    1
    13    13    14    1
    14    14    15    1
    15    15    16    1
    16    16    17    1
    17    17    18   am
    18    18    19    2
    19    18    20    1
    20    20    21    1
    21    20    22    1
    22    16    23    1
    23    23    12    1
    24    11    24    1
    25    24     8    1
    26    24    25    1
    27    25    26    1
    28    26    27    1
    29    27    28    1
    30    27    29    2
    31    29    30    1
    32    30    31    1
    33    30    32    1
    34    32    26    2
    35    32    33    1
    36     5    34   ar
    37    34    35   ar
    38    35     2   ar
    39    35    36    1
    40    16    37    1
    41     1    38    1
    42     1    39    1
    43     1    40    1
    44     3    41    1
    45     4    42    1
    46     7    43    1
    47     7    44    1
    48    13    45    1
    49    13    46    1
    50    14    47    1
    51    14    48    1
    52    15    49    1
    53    15    50    1
    54    17    51    1
    55    20    52    1
    56    21    53    1
    57    21    54    1
    58    21    55    1
    59    22    56    1
    60    22    57    1
    61    22    58    1
    62    23    59    1
    63    23    60    1
    64    25    61    1
    65    25    62    1
    66    28    63    1
    67    28    64    1
    68    28    65    1
    69    31    66    1
    70    31    67    1
    71    31    68    1
    72    33    69    1
    73    33    70    1
    74    33    71    1
    75    34    72    1
    76    36    73    1
    77    36    74    1
    78    36    75    1
