@<TRIPOS>MOLECULE
*****
 75 78 0 0 0
SMALL
USER_CHARGES

@<TRIPOS>ATOM
      1 C1         -2.9588    9.7364   -6.2285 C.3     1  LIG1        0.0000
      2 C2         -2.9566    8.4831   -5.3682 C.3     1  LIG1        0.0000
      3 C3         -3.0699    7.2461   -5.9937 C.3     1  LIG1        0.0000
      4 C4         -3.0724    6.0736   -5.2459 C.3     1  LIG1        0.0000
      5 C5         -2.9595    6.1571   -3.8622 C.3     1  LIG1        0.0000
      6 O6         -2.9614    5.0211   -3.1334 O.2     1  LIG1        0.0000
      7 C7         -2.8412    5.1955   -1.7293 C.3     1  LIG1        0.0000
      8 C8         -2.3668    3.8976   -1.0964 C.2     1  LIG1        0.0000
      9 N9         -3.1229    2.9252   -0.6475 N.2     1  LIG1        0.0000
     10 N10        -2.3651    1.9575   -0.1634 N.2     1  LIG1        0.0000
     11 C11        -1.1054    2.2901   -0.3012 C.cat   1  LIG1        0.0000
     12 N12        -0.0006    1.5253    0.0799 N.pl3   1  LIG1        0.0000
     13 C13        -0.1811    0.0779    0.2791 C.3     1  LIG1        0.0000
     14 C14         0.7339   -0.4692    1.3659 C.3     1  LIG1        0.0000
     15 C15         2.1665    0.0287    1.2287 C.3     1  LIG1        0.0000
     16 C16         2.1273    1.5448    1.3615 C.3     1  LIG1        0.0000
     17 N17         3.4836    2.1076    1.2984 N.am    1  LIG1        0.0000
     18 C18         4.4283    1.7223    2.2128 C.2     1  LIG1        0.0000
     19 O19         4.0903    1.2283    3.2528 O.2     1  LIG1        0.0000
     20 C20         5.9046    1.9208    1.9099 C.3     1  LIG1        0.0000
     21 C21         6.7341    1.4136    3.0782 C.3     1  LIG1        0.0000
     22 C22         6.2725    1.1477    0.6539 C.3     1  LIG1        0.0000
     23 C23         1.2943    2.2003    0.2693 C.3     1  LIG1        0.0000
     24 N24        -1.0771    3.5176   -0.8892 N.pl3   1  LIG1        0.0000
     25 C25         0.1225    4.2926   -1.2336 C.3     1  LIG1        0.0000
     26 C26         0.0860    4.6535   -2.7091 C.2     1  LIG1        0.0000
     27 C27         0.4692    5.8775   -3.2935 C.2     1  LIG1        0.0000
     28 C28         1.0010    7.0934   -2.5533 C.3     1  LIG1        0.0000
     29 N29         0.2891    5.7830   -4.5883 N.2     1  LIG1        0.0000
     30 N30        -0.1849    4.5948   -4.8775 N.pl3   1  LIG1        0.0000
     31 C31        -0.5120    4.1189   -6.2304 C.3     1  LIG1        0.0000
     32 C32        -0.3215    3.8626   -3.7377 C.2     1  LIG1        0.0000
     33 C33        -0.8337    2.4350   -3.6371 C.3     1  LIG1        0.0000
     34 C34        -2.8444    7.3876   -3.2233 C.3     1  LIG1        0.0000
     35 C35        -2.8440    8.5538   -3.9825 C.3     1  LIG1        0.0000
     36 C36        -2.7176    9.8885   -3.2661 C.3     1  LIG1        0.0000
     37 H           1.7278    1.7762    2.2485 H       1  LIG1        0.0000
     38 H          -3.0479    9.4798   -7.1910 H       1  LIG1        0.0000
     39 H          -3.7279   10.3193   -5.9664 H       1  LIG1        0.0000
     40 H          -2.1022   10.2344   -6.0942 H       1  LIG1        0.0000
     41 H          -3.1502    7.1994   -6.9894 H       1  LIG1        0.0000
     42 H          -3.1542    5.1843   -5.6961 H       1  LIG1        0.0000
     43 H          -3.7304    5.4471   -1.3473 H       1  LIG1        0.0000
     44 H          -2.1793    5.9206   -1.5389 H       1  LIG1        0.0000
     45 H           0.0205   -0.3933   -0.5796 H       1  LIG1        0.0000
     46 H          -1.1308   -0.0957    0.5396 H       1  LIG1        0.0000
     47 H           0.7350   -1.4677    1.3113 H       1  LIG1        0.0000
     48 H           0.3796   -0.1845    2.2566 H       1  LIG1        0.0000
     49 H           2.7370   -0.3643    1.9499 H       1  LIG1        0.0000
     50 H           2.5350   -0.2281    0.3352 H       1  LIG1        0.0000
     51 H           3.7169    2.7716    0.5880 H       1  LIG1        0.0000
     52 H           6.0880    2.8936    1.7683 H       1  LIG1        0.0000
     53 H           7.7053    1.5441    2.8789 H       1  LIG1        0.0000
     54 H           6.4921    1.9222    3.9045 H       1  LIG1        0.0000
     55 H           6.5507    0.4408    3.2198 H       1  LIG1        0.0000
     56 H           7.2437    1.2783    0.4546 H       1  LIG1        0.0000
     57 H           6.0891    0.1749    0.7955 H       1  LIG1        0.0000
     58 H           5.7267    1.4814   -0.1147 H       1  LIG1        0.0000
     59 H           1.1272    3.1539    0.5197 H       1  LIG1        0.0000
     60 H           1.8046    2.1659   -0.5900 H       1  LIG1        0.0000
     61 H           0.9382    3.7460   -1.0441 H       1  LIG1        0.0000
     62 H           0.1474    5.1292   -0.6863 H       1  LIG1        0.0000
     63 H           1.0384    6.8971   -1.5735 H       1  LIG1        0.0000
     64 H           1.9190    7.3105   -2.8851 H       1  LIG1        0.0000
     65 H           0.3954    7.8728   -2.7142 H       1  LIG1        0.0000
     66 H          -0.8552    3.1809   -6.1799 H       1  LIG1        0.0000
     67 H          -1.2128    4.7091   -6.6310 H       1  LIG1        0.0000
     68 H           0.3096    4.1430   -6.8000 H       1  LIG1        0.0000
     69 H          -0.8290    2.1459   -2.6798 H       1  LIG1        0.0000
     70 H          -1.7666    2.3897   -3.9944 H       1  LIG1        0.0000
     71 H          -0.2426    1.8304   -4.1709 H       1  LIG1        0.0000
     72 H          -2.7628    7.4336   -2.2277 H       1  LIG1        0.0000
     73 H          -2.6483    9.7328   -2.2808 H       1  LIG1        0.0000
     74 H          -1.8978   10.3628   -3.5871 H       1  LIG1        0.0000
     75 H          -3.5235   10.4481   -3.4593 H       1  LIG1        0.0000
@<TRIPOS>BOND
     1     1     2    1
     2     2     3   ar
     3     3     4   ar
     4     4     5   ar
     5     5     6    1
     6     6     7    1
     7     7     8    1
     8     8     9    2
     9     9    10    1
    10    10    11    2
    11    11    12    1
    12    12    13    1
    13    13    14    1
    14    14    15    1
    15    15    16    1
    16    16    17    1
    17    17    18   am
    18    18    19    2
    19    18    20    1
    20    20    21    1
    21    20    22    1
    22    16    23    1
    23    23    12    1
    24    11    24    1
    25    24     8    1
    26    24    25    1
    27    25    26    1
    28    26    27    1
    29    27    28    1
    30    27    29    2
    31    29    30    1
    32    30    31    1
    33    30    32    1
    34    32    26    2
    35    32    33    1
    36     5    34   ar
    37    34    35   ar
    38    35     2   ar
    39    35    36    1
    40    16    37    1
    41     1    38    1
    42     1    39    1
    43     1    40    1
    44     3    41    1
    45     4    42    1
    46     7    43    1
    47     7    44    1
    48    13    45    1
    49    13    46    1
    50    14    47    1
    51    14    48    1
    52    15    49    1
    53    15    50    1
    54    17    51    1
    55    20    52    1
    56    21    53    1
    57    21    54    1
    58    21    55    1
    59    22    56    1
    60    22    57    1
    61    22    58    1
    62    23    59    1
    63    23    60    1
    64    25    61    1
    65    25    62    1
    66    28    63    1
    67    28    64    1
    68    28    65    1
    69    31    66    1
    70    31    67    1
    71    31    68    1
    72    33    69    1
    73    33    70    1
    74    33    71    1
    75    34    72    1
    76    36    73    1
    77    36    74    1
    78    36    75    1
