@<TRIPOS>MOLECULE
*****
 75 78 0 0 0
SMALL
USER_CHARGES

@<TRIPOS>ATOM
      1 C1         -4.7030    9.5854   -5.9526 C.3     1  LIG1        0.0000
      2 C2         -4.2321    8.3394   -5.2201 C.3     1  LIG1        0.0000
      3 C3         -4.0800    8.3967   -3.8388 C.3     1  LIG1        0.0000
      4 C4         -3.6514    7.2809   -3.1280 C.3     1  LIG1        0.0000
      5 C5         -3.3773    6.1060   -3.8201 C.3     1  LIG1        0.0000
      6 O6         -2.9614    5.0211   -3.1334 O.2     1  LIG1        0.0000
      7 C7         -2.8412    5.1955   -1.7293 C.3     1  LIG1        0.0000
      8 C8         -2.3668    3.8976   -1.0964 C.2     1  LIG1        0.0000
      9 N9         -3.1229    2.9252   -0.6475 N.2     1  LIG1        0.0000
     10 N10        -2.3651    1.9575   -0.1634 N.2     1  LIG1        0.0000
     11 C11        -1.1054    2.2901   -0.3012 C.cat   1  LIG1        0.0000
     12 N12        -0.0006    1.5253    0.0799 N.pl3   1  LIG1        0.0000
     13 C13        -0.1811    0.0779    0.2791 C.3     1  LIG1        0.0000
     14 C14         0.7339   -0.4692    1.3659 C.3     1  LIG1        0.0000
     15 C15         2.1665    0.0287    1.2287 C.3     1  LIG1        0.0000
     16 C16         2.1273    1.5448    1.3615 C.3     1  LIG1        0.0000
     17 N17         3.4836    2.1076    1.2984 N.am    1  LIG1        0.0000
     18 C18         3.9832    2.8119    2.3620 C.2     1  LIG1        0.0000
     19 O19         3.3134    2.9694    3.3451 O.2     1  LIG1        0.0000
     20 C20         5.3858    3.3939    2.2967 C.3     1  LIG1        0.0000
     21 C21         5.6932    4.1219    3.5952 C.3     1  LIG1        0.0000
     22 C22         6.3911    2.2718    2.0947 C.3     1  LIG1        0.0000
     23 C23         1.2943    2.2003    0.2693 C.3     1  LIG1        0.0000
     24 N24        -1.0771    3.5176   -0.8892 N.pl3   1  LIG1        0.0000
     25 C25         0.1225    4.2926   -1.2336 C.3     1  LIG1        0.0000
     26 C26         0.0860    4.6535   -2.7091 C.2     1  LIG1        0.0000
     27 C27         0.0456    3.7623   -3.8003 C.2     1  LIG1        0.0000
     28 C28         0.0304    2.2452   -3.7150 C.3     1  LIG1        0.0000
     29 N29         0.0205    4.4712   -4.9025 N.2     1  LIG1        0.0000
     30 N30         0.0473    5.7474   -4.6013 N.pl3   1  LIG1        0.0000
     31 C31         0.0305    6.8489   -5.5761 C.3     1  LIG1        0.0000
     32 C32         0.0846    5.9017   -3.2491 C.2     1  LIG1        0.0000
     33 C33         0.1197    7.2186   -2.4908 C.3     1  LIG1        0.0000
     34 C34        -3.5260    6.0341   -5.2015 C.3     1  LIG1        0.0000
     35 C35        -3.9548    7.1576   -5.9016 C.3     1  LIG1        0.0000
     36 C36        -4.1108    7.0592   -7.4105 C.3     1  LIG1        0.0000
     37 H           1.7278    1.7762    2.2485 H       1  LIG1        0.0000
     38 H          -4.8478   10.3242   -5.2945 H       1  LIG1        0.0000
     39 H          -4.0100    9.8628   -6.6180 H       1  LIG1        0.0000
     40 H          -5.5610    9.3888   -6.4272 H       1  LIG1        0.0000
     41 H          -4.2806    9.2473   -3.3528 H       1  LIG1        0.0000
     42 H          -3.5420    7.3227   -2.1349 H       1  LIG1        0.0000
     43 H          -3.7304    5.4471   -1.3473 H       1  LIG1        0.0000
     44 H          -2.1793    5.9206   -1.5389 H       1  LIG1        0.0000
     45 H           0.0205   -0.3933   -0.5796 H       1  LIG1        0.0000
     46 H          -1.1308   -0.0957    0.5396 H       1  LIG1        0.0000
     47 H           0.7350   -1.4677    1.3113 H       1  LIG1        0.0000
     48 H           0.3796   -0.1845    2.2566 H       1  LIG1        0.0000
     49 H           2.7370   -0.3643    1.9499 H       1  LIG1        0.0000
     50 H           2.5350   -0.2281    0.3352 H       1  LIG1        0.0000
     51 H           4.0418    1.9763    0.4791 H       1  LIG1        0.0000
     52 H           5.4450    4.0361    1.5325 H       1  LIG1        0.0000
     53 H           6.6160    4.5048    3.5522 H       1  LIG1        0.0000
     54 H           5.0319    4.8601    3.7281 H       1  LIG1        0.0000
     55 H           5.6340    3.4798    4.3594 H       1  LIG1        0.0000
     56 H           7.3139    2.6547    2.0518 H       1  LIG1        0.0000
     57 H           6.3318    1.6297    2.8590 H       1  LIG1        0.0000
     58 H           6.1888    1.7929    1.2405 H       1  LIG1        0.0000
     59 H           1.1272    3.1539    0.5197 H       1  LIG1        0.0000
     60 H           1.8046    2.1659   -0.5900 H       1  LIG1        0.0000
     61 H           0.9382    3.7460   -1.0441 H       1  LIG1        0.0000
     62 H           0.1474    5.1292   -0.6863 H       1  LIG1        0.0000
     63 H           0.0561    1.9650   -2.7554 H       1  LIG1        0.0000
     64 H          -0.8035    1.8957   -4.1421 H       1  LIG1        0.0000
     65 H           0.8287    1.8766   -4.1914 H       1  LIG1        0.0000
     66 H           0.0578    7.7233   -5.0916 H       1  LIG1        0.0000
     67 H           0.8271    6.7753   -6.1761 H       1  LIG1        0.0000
     68 H          -0.8049    6.7971   -6.1233 H       1  LIG1        0.0000
     69 H           0.1434    7.0367   -1.5077 H       1  LIG1        0.0000
     70 H           0.9355    7.7333   -2.7543 H       1  LIG1        0.0000
     71 H          -0.6968    7.7522   -2.7114 H       1  LIG1        0.0000
     72 H          -3.3266    5.1828   -5.6868 H       1  LIG1        0.0000
     73 H          -3.8662    6.1376   -7.7115 H       1  LIG1        0.0000
     74 H          -5.0600    7.2506   -7.6606 H       1  LIG1        0.0000
     75 H          -3.5091    7.7248   -7.8519 H       1  LIG1        0.0000
@<TRIPOS>BOND
     1     1     2    1
     2     2     3   ar
     3     3     4   ar
     4     4     5   ar
     5     5     6    1
     6     6     7    1
     7     7     8    1
     8     8     9    2
     9     9    10    1
    10    10    11    2
    11    11    12    1
    12    12    13    1
    13    13    14    1
    14    14    15    1
    15    15    16    1
    16    16    17    1
    17    17    18   am
    18    18    19    2
    19    18    20    1
    20    20    21    1
    21    20    22    1
    22    16    23    1
    23    23    12    1
    24    11    24    1
    25    24     8    1
    26    24    25    1
    27    25    26    1
    28    26    27    1
    29    27    28    1
    30    27    29    2
    31    29    30    1
    32    30    31    1
    33    30    32    1
    34    32    26    2
    35    32    33    1
    36     5    34   ar
    37    34    35   ar
    38    35     2   ar
    39    35    36    1
    40    16    37    1
    41     1    38    1
    42     1    39    1
    43     1    40    1
    44     3    41    1
    45     4    42    1
    46     7    43    1
    47     7    44    1
    48    13    45    1
    49    13    46    1
    50    14    47    1
    51    14    48    1
    52    15    49    1
    53    15    50    1
    54    17    51    1
    55    20    52    1
    56    21    53    1
    57    21    54    1
    58    21    55    1
    59    22    56    1
    60    22    57    1
    61    22    58    1
    62    23    59    1
    63    23    60    1
    64    25    61    1
    65    25    62    1
    66    28    63    1
    67    28    64    1
    68    28    65    1
    69    31    66    1
    70    31    67    1
    71    31    68    1
    72    33    69    1
    73    33    70    1
    74    33    71    1
    75    34    72    1
    76    36    73    1
    77    36    74    1
    78    36    75    1
