@<TRIPOS>MOLECULE
*****
 75 78 0 0 0
SMALL
USER_CHARGES

@<TRIPOS>ATOM
      1 C1         -7.7374    5.1040    2.8992 C.3     1  LIG1        0.0000
      2 C2         -6.8314    5.1520    1.6795 C.3     1  LIG1        0.0000
      3 C3         -5.4560    5.2197    1.8742 C.3     1  LIG1        0.0000
      4 C4         -4.5897    5.2656    0.7873 C.3     1  LIG1        0.0000
      5 C5         -5.1202    5.2424   -0.4982 C.3     1  LIG1        0.0000
      6 O6         -4.2824    5.2865   -1.5553 O.2     1  LIG1        0.0000
      7 C7         -2.9001    5.3554   -1.2374 C.3     1  LIG1        0.0000
      8 C8         -2.3918    3.9673   -0.8843 C.2     1  LIG1        0.0000
      9 N9         -3.0929    2.8596   -0.8662 N.2     1  LIG1        0.0000
     10 N10        -2.3210    1.8483   -0.5105 N.2     1  LIG1        0.0000
     11 C11        -1.1054    2.2901   -0.3012 C.cat   1  LIG1        0.0000
     12 N12        -0.0006    1.5253    0.0799 N.pl3   1  LIG1        0.0000
     13 C13        -0.1811    0.0779    0.2791 C.3     1  LIG1        0.0000
     14 C14         0.7339   -0.4692    1.3659 C.3     1  LIG1        0.0000
     15 C15         2.1665    0.0287    1.2287 C.3     1  LIG1        0.0000
     16 C16         2.1273    1.5448    1.3615 C.3     1  LIG1        0.0000
     17 N17         3.4836    2.1076    1.2984 N.am    1  LIG1        0.0000
     18 C18         3.9832    2.8119    2.3620 C.2     1  LIG1        0.0000
     19 O19         3.3134    2.9694    3.3451 O.2     1  LIG1        0.0000
     20 C20         5.3858    3.3939    2.2967 C.3     1  LIG1        0.0000
     21 C21         5.6932    4.1219    3.5952 C.3     1  LIG1        0.0000
     22 C22         6.3911    2.2718    2.0947 C.3     1  LIG1        0.0000
     23 C23         1.2943    2.2003    0.2693 C.3     1  LIG1        0.0000
     24 N24        -1.1219    3.6320   -0.5297 N.pl3   1  LIG1        0.0000
     25 C25         0.0181    4.5512   -0.4119 C.3     1  LIG1        0.0000
     26 C26         1.1625    4.0523   -1.2780 C.2     1  LIG1        0.0000
     27 C27         2.5352    4.0600   -0.9581 C.2     1  LIG1        0.0000
     28 C28         3.1490    4.5755    0.3329 C.3     1  LIG1        0.0000
     29 N29         3.1902    3.5419   -1.9682 N.2     1  LIG1        0.0000
     30 N30         2.3434    3.2080   -2.9124 N.pl3   1  LIG1        0.0000
     31 C31         2.7070    2.5952   -4.1993 C.3     1  LIG1        0.0000
     32 C32         1.0740    3.5058   -2.5202 C.2     1  LIG1        0.0000
     33 C33        -0.1970    3.2726   -3.3206 C.3     1  LIG1        0.0000
     34 C34        -6.4939    5.1738   -0.7077 C.3     1  LIG1        0.0000
     35 C35        -7.3505    5.1292    0.3880 C.3     1  LIG1        0.0000
     36 C36        -8.8481    5.0547    0.1385 C.3     1  LIG1        0.0000
     37 H           1.7278    1.7762    2.2485 H       1  LIG1        0.0000
     38 H          -7.1805    5.1298    3.7293 H       1  LIG1        0.0000
     39 H          -8.3545    5.8907    2.8872 H       1  LIG1        0.0000
     40 H          -8.2732    4.2598    2.8834 H       1  LIG1        0.0000
     41 H          -5.0869    5.2355    2.8035 H       1  LIG1        0.0000
     42 H          -3.6008    5.3145    0.9277 H       1  LIG1        0.0000
     43 H          -2.7675    5.9673   -0.4577 H       1  LIG1        0.0000
     44 H          -2.3938    5.7052   -2.0256 H       1  LIG1        0.0000
     45 H           0.0205   -0.3933   -0.5796 H       1  LIG1        0.0000
     46 H          -1.1308   -0.0957    0.5396 H       1  LIG1        0.0000
     47 H           0.7350   -1.4677    1.3113 H       1  LIG1        0.0000
     48 H           0.3796   -0.1845    2.2566 H       1  LIG1        0.0000
     49 H           2.7370   -0.3643    1.9499 H       1  LIG1        0.0000
     50 H           2.5350   -0.2281    0.3352 H       1  LIG1        0.0000
     51 H           4.0418    1.9763    0.4791 H       1  LIG1        0.0000
     52 H           5.4450    4.0361    1.5325 H       1  LIG1        0.0000
     53 H           6.6160    4.5048    3.5522 H       1  LIG1        0.0000
     54 H           5.0319    4.8601    3.7281 H       1  LIG1        0.0000
     55 H           5.6340    3.4798    4.3594 H       1  LIG1        0.0000
     56 H           7.3139    2.6547    2.0518 H       1  LIG1        0.0000
     57 H           6.3318    1.6297    2.8590 H       1  LIG1        0.0000
     58 H           6.1888    1.7929    1.2405 H       1  LIG1        0.0000
     59 H           1.1272    3.1539    0.5197 H       1  LIG1        0.0000
     60 H           1.8046    2.1659   -0.5900 H       1  LIG1        0.0000
     61 H           0.3155    4.5928    0.5420 H       1  LIG1        0.0000
     62 H          -0.2566    5.4635   -0.7155 H       1  LIG1        0.0000
     63 H           2.4255    4.9171    0.9328 H       1  LIG1        0.0000
     64 H           3.6377    3.8323    0.7897 H       1  LIG1        0.0000
     65 H           3.7877    5.3166    0.1256 H       1  LIG1        0.0000
     66 H           1.8802    2.4396   -4.7399 H       1  LIG1        0.0000
     67 H           3.3211    3.2068   -4.6981 H       1  LIG1        0.0000
     68 H           3.1669    1.7226   -4.0349 H       1  LIG1        0.0000
     69 H          -0.9861    3.5847   -2.7916 H       1  LIG1        0.0000
     70 H          -0.1484    3.7827   -4.1793 H       1  LIG1        0.0000
     71 H          -0.2925    2.2968   -3.5175 H       1  LIG1        0.0000
     72 H          -6.8623    5.1567   -1.6373 H       1  LIG1        0.0000
     73 H          -9.0221    5.0484   -0.8462 H       1  LIG1        0.0000
     74 H          -9.2128    4.2179    0.5468 H       1  LIG1        0.0000
     75 H          -9.2946    5.8488    0.5508 H       1  LIG1        0.0000
@<TRIPOS>BOND
     1     1     2    1
     2     2     3   ar
     3     3     4   ar
     4     4     5   ar
     5     5     6    1
     6     6     7    1
     7     7     8    1
     8     8     9    2
     9     9    10    1
    10    10    11    2
    11    11    12    1
    12    12    13    1
    13    13    14    1
    14    14    15    1
    15    15    16    1
    16    16    17    1
    17    17    18   am
    18    18    19    2
    19    18    20    1
    20    20    21    1
    21    20    22    1
    22    16    23    1
    23    23    12    1
    24    11    24    1
    25    24     8    1
    26    24    25    1
    27    25    26    1
    28    26    27    1
    29    27    28    1
    30    27    29    2
    31    29    30    1
    32    30    31    1
    33    30    32    1
    34    32    26    2
    35    32    33    1
    36     5    34   ar
    37    34    35   ar
    38    35     2   ar
    39    35    36    1
    40    16    37    1
    41     1    38    1
    42     1    39    1
    43     1    40    1
    44     3    41    1
    45     4    42    1
    46     7    43    1
    47     7    44    1
    48    13    45    1
    49    13    46    1
    50    14    47    1
    51    14    48    1
    52    15    49    1
    53    15    50    1
    54    17    51    1
    55    20    52    1
    56    21    53    1
    57    21    54    1
    58    21    55    1
    59    22    56    1
    60    22    57    1
    61    22    58    1
    62    23    59    1
    63    23    60    1
    64    25    61    1
    65    25    62    1
    66    28    63    1
    67    28    64    1
    68    28    65    1
    69    31    66    1
    70    31    67    1
    71    31    68    1
    72    33    69    1
    73    33    70    1
    74    33    71    1
    75    34    72    1
    76    36    73    1
    77    36    74    1
    78    36    75    1
