@<TRIPOS>MOLECULE

  61   64
SMALL
USER_CHARGES
@<TRIPOS>ATOM
   1 C1           6.6352    -3.9630     1.0131 C.3          1    LIG   0.0000
   2 C2           6.8892    -2.4643     1.0091 C.3          1    LIG   0.0000
   3 O3           5.6484    -1.7739     1.0069 O.3          1    LIG   0.0000
   4 C4           5.7305    -0.4665     1.0034 C.2          1    LIG   0.0000
   5 O5           6.8053     0.0672     1.0022 O.2          1    LIG   0.0000
   6 C6           4.5227     0.3358     1.0008 C.2          1    LIG   0.0000
   7 N7           4.4544     1.6954     0.9972 N.pl3        1    LIG   0.0000
   8 N8           3.1847     2.0473     0.9950 N.2          1    LIG   0.0000
   9 C9           2.3993     1.0000     1.0000 C.2          1    LIG   0.0000
  10 N10          1.0000     1.0000     1.0000 N.am         1    LIG   0.0000
  11 C11          0.3150     2.1864     0.9926 C.2          1    LIG   0.0000
  12 O12          0.9150     3.2256     0.9861 O.2          1    LIG   0.0000
  13 C13         -1.1346     2.1864     0.9926 C.2          1    LIG   0.0000
  14 C14         -1.9412     2.1814    -0.1043 C.2          1    LIG   0.0000
  15 N15         -3.2182     2.1849     0.3661 N.pl3        1    LIG   0.0000
  16 C16         -4.4219     2.1780    -0.4770 C.3          1    LIG   0.0000
  17 C17         -4.8344     0.7429    -0.7594 C.ar         1    LIG   0.0000
  18 C18         -4.3249     0.0930    -1.8786 C.ar         1    LIG   0.0000
  19 C19         -4.7072    -1.2202    -2.1329 C.ar         1    LIG   0.0000
  20 C20         -5.5874    -1.8670    -1.2728 C.ar         1    LIG   0.0000
  21 C21         -5.9977    -3.3029    -1.5593 C.3          1    LIG   0.0000
  22 C22         -6.0927    -1.2085    -0.1561 C.ar         1    LIG   0.0000
  23 C23         -5.7159     0.1044     0.1068 C.ar         1    LIG   0.0000
  24 N24         -3.2033     2.1924     1.6795 N.2          1    LIG   0.0000
  25 C25         -1.9685     2.1935     2.1254 C.2          1    LIG   0.0000
  26 C26         -1.5506     2.1989     3.5136 C.ar         1    LIG   0.0000
  27 C27         -2.2415     2.9817     4.4327 C.ar         1    LIG   0.0000
  28 C28         -1.8366     2.9839     5.7635 C.ar         1    LIG   0.0000
  29 C29         -0.7517     2.2101     6.1614 C.ar         1    LIG   0.0000
  30 C30         -0.3160     2.2187     7.6168 C.3          1    LIG   0.0000
  31 C31         -0.0668     1.4291     5.2355 C.ar         1    LIG   0.0000
  32 C32         -0.4648     1.4210     3.9030 C.ar         1    LIG   0.0000
  33 C33          3.2440    -0.1283     1.0070 C.2          1    LIG   0.0000
  34 C34          2.8051    -1.5830     1.0160 C.3          1    LIG   0.0000
  35 H            5.2349     2.3205     0.9962 H            1    LIG   0.0000
  36 H            7.5090    -4.4492     1.0146 H            1    LIG   0.0000
  37 H            6.1145    -4.2106     1.8301 H            1    LIG   0.0000
  38 H            6.1149    -4.2150     0.1971 H            1    LIG   0.0000
  39 H            7.4095    -2.2123     1.8251 H            1    LIG   0.0000
  40 H            7.4100    -2.2167     0.1921 H            1    LIG   0.0000
  41 H            0.5000     0.1340     1.0054 H            1    LIG   0.0000
  42 H           -1.6535     2.1762    -1.0620 H            1    LIG   0.0000
  43 H           -4.2273     2.6449    -1.3397 H            1    LIG   0.0000
  44 H           -5.1641     2.6509    -0.0022 H            1    LIG   0.0000
  45 H           -3.6918     0.5639    -2.4929 H            1    LIG   0.0000
  46 H           -4.3487    -1.6990    -2.9343 H            1    LIG   0.0000
  47 H           -6.6296    -3.6167    -0.8506 H            1    LIG   0.0000
  48 H           -6.4474    -3.3494    -2.4513 H            1    LIG   0.0000
  49 H           -5.1859    -3.8868    -1.5644 H            1    LIG   0.0000
  50 H           -6.7268    -1.6791     0.4575 H            1    LIG   0.0000
  51 H           -6.0742     0.5831     0.9083 H            1    LIG   0.0000
  52 H           -3.0204     3.5365     4.1401 H            1    LIG   0.0000
  53 H           -2.3256     3.5419     6.4340 H            1    LIG   0.0000
  54 H            0.4720     1.6139     7.7324 H            1    LIG   0.0000
  55 H           -0.0643     3.1489     7.8840 H            1    LIG   0.0000
  56 H           -1.0688     1.8988     8.1920 H            1    LIG   0.0000
  57 H            0.7115     0.8737     5.5283 H            1    LIG   0.0000
  58 H            0.0237     0.8625     3.2326 H            1    LIG   0.0000
  59 H            3.6114    -2.1744     1.0197 H            1    LIG   0.0000
  60 H            2.2574    -1.7608     1.8336 H            1    LIG   0.0000
  61 H            2.2575    -1.7709     0.2006 H            1    LIG   0.0000
@<TRIPOS>BOND
   1        1        2 1
   2        2        3 1
   3        3        4 1
   4        4        5 2
   5        4        6 1
   6        6        7 1
   7        7        8 1
   8        8        9 2
   9        9       10 1
  10       10       11 am
  11       11       12 2
  12       11       13 1
  13       13       14 2
  14       14       15 1
  15       15       16 1
  16       16       17 1
  17       17       18 ar
  18       18       19 ar
  19       19       20 ar
  20       20       21 1
  21       20       22 ar
  22       22       23 ar
  23       23       17 ar
  24       15       24 1
  25       24       25 2
  26       25       13 1
  27       25       26 1
  28       26       27 ar
  29       27       28 ar
  30       28       29 ar
  31       29       30 1
  32       29       31 ar
  33       31       32 ar
  34       32       26 ar
  35        9       33 1
  36       33        6 2
  37       33       34 1
  38        7       35 1
  39        1       36 1
  40        1       37 1
  41        1       38 1
  42        2       39 1
  43        2       40 1
  44       10       41 1
  45       14       42 1
  46       16       43 1
  47       16       44 1
  48       18       45 1
  49       19       46 1
  50       21       47 1
  51       21       48 1
  52       21       49 1
  53       22       50 1
  54       23       51 1
  55       27       52 1
  56       28       53 1
  57       30       54 1
  58       30       55 1
  59       30       56 1
  60       31       57 1
  61       32       58 1
  62       34       59 1
  63       34       60 1
  64       34       61 1

@<TRIPOS>MOLECULE

  61   64
SMALL
USER_CHARGES
@<TRIPOS>ATOM
   1 C1           6.6352    -3.9630     1.0131 C.3          1    LIG   0.0000
   2 C2           6.8892    -2.4643     1.0091 C.3          1    LIG   0.0000
   3 O3           5.6484    -1.7739     1.0069 O.3          1    LIG   0.0000
   4 C4           5.7305    -0.4665     1.0034 C.2          1    LIG   0.0000
   5 O5           6.8053     0.0672     1.0022 O.2          1    LIG   0.0000
   6 C6           4.5227     0.3358     1.0008 C.2          1    LIG   0.0000
   7 N7           4.4544     1.6954     0.9972 N.pl3        1    LIG   0.0000
   8 N8           3.1847     2.0473     0.9950 N.2          1    LIG   0.0000
   9 C9           2.3993     1.0000     1.0000 C.2          1    LIG   0.0000
  10 N10          1.0000     1.0000     1.0000 N.am         1    LIG   0.0000
  11 C11          0.3150     2.1864     0.9926 C.2          1    LIG   0.0000
  12 O12          0.9150     3.2256     0.9861 O.2          1    LIG   0.0000
  13 C13         -1.1346     2.1864     0.9926 C.2          1    LIG   0.0000
  14 C14         -1.9412     2.1814    -0.1043 C.2          1    LIG   0.0000
  15 N15         -3.2182     2.1849     0.3661 N.pl3        1    LIG   0.0000
  16 C16         -4.4219     2.1780    -0.4770 C.3          1    LIG   0.0000
  17 C17         -4.8392     3.6085    -0.7758 C.ar         1    LIG   0.0000
  18 C18         -5.7218     4.2563     0.0821 C.ar         1    LIG   0.0000
  19 C19         -6.1013     5.5652    -0.1972 C.ar         1    LIG   0.0000
  20 C20         -5.5988     6.2099    -1.3218 C.ar         1    LIG   0.0000
  21 C21         -6.0191     7.6410    -1.6172 C.3          1    LIG   0.0000
  22 C22         -4.7170     5.5534    -2.1749 C.ar         1    LIG   0.0000
  23 C23         -4.3312     4.2449    -1.9037 C.ar         1    LIG   0.0000
  24 N24         -3.2033     2.1924     1.6795 N.2          1    LIG   0.0000
  25 C25         -1.9685     2.1935     2.1254 C.2          1    LIG   0.0000
  26 C26         -1.5506     2.1989     3.5136 C.ar         1    LIG   0.0000
  27 C27         -2.2415     2.9817     4.4327 C.ar         1    LIG   0.0000
  28 C28         -1.8366     2.9839     5.7635 C.ar         1    LIG   0.0000
  29 C29         -0.7517     2.2101     6.1614 C.ar         1    LIG   0.0000
  30 C30         -0.3160     2.2187     7.6168 C.3          1    LIG   0.0000
  31 C31         -0.0668     1.4291     5.2355 C.ar         1    LIG   0.0000
  32 C32         -0.4648     1.4210     3.9030 C.ar         1    LIG   0.0000
  33 C33          3.2440    -0.1283     1.0070 C.2          1    LIG   0.0000
  34 C34          2.8051    -1.5830     1.0160 C.3          1    LIG   0.0000
  35 H            5.2349     2.3205     0.9962 H            1    LIG   0.0000
  36 H            7.5090    -4.4492     1.0146 H            1    LIG   0.0000
  37 H            6.1145    -4.2106     1.8301 H            1    LIG   0.0000
  38 H            6.1149    -4.2150     0.1971 H            1    LIG   0.0000
  39 H            7.4095    -2.2123     1.8251 H            1    LIG   0.0000
  40 H            7.4100    -2.2167     0.1921 H            1    LIG   0.0000
  41 H            0.5000     0.1340     1.0054 H            1    LIG   0.0000
  42 H           -1.6535     2.1762    -1.0620 H            1    LIG   0.0000
  43 H           -5.1626     1.7082     0.0032 H            1    LIG   0.0000
  44 H           -4.2257     1.7021    -1.3343 H            1    LIG   0.0000
  45 H           -6.0792     3.7869     0.8895 H            1    LIG   0.0000
  46 H           -6.7357     6.0424     0.4109 H            1    LIG   0.0000
  47 H           -5.5715     7.9538    -2.4549 H            1    LIG   0.0000
  48 H           -7.0114     7.6794    -1.7352 H            1    LIG   0.0000
  49 H           -5.7510     8.2311    -0.8556 H            1    LIG   0.0000
  50 H           -4.3606     6.0225    -2.9830 H            1    LIG   0.0000
  51 H           -3.6968     3.7677    -2.5117 H            1    LIG   0.0000
  52 H           -3.0204     3.5365     4.1401 H            1    LIG   0.0000
  53 H           -2.3256     3.5419     6.4340 H            1    LIG   0.0000
  54 H            0.4720     1.6139     7.7324 H            1    LIG   0.0000
  55 H           -0.0643     3.1489     7.8840 H            1    LIG   0.0000
  56 H           -1.0688     1.8988     8.1920 H            1    LIG   0.0000
  57 H            0.7115     0.8737     5.5283 H            1    LIG   0.0000
  58 H            0.0237     0.8625     3.2326 H            1    LIG   0.0000
  59 H            3.6114    -2.1744     1.0197 H            1    LIG   0.0000
  60 H            2.2574    -1.7608     1.8336 H            1    LIG   0.0000
  61 H            2.2575    -1.7709     0.2006 H            1    LIG   0.0000
@<TRIPOS>BOND
   1        1        2 1
   2        2        3 1
   3        3        4 1
   4        4        5 2
   5        4        6 1
   6        6        7 1
   7        7        8 1
   8        8        9 2
   9        9       10 1
  10       10       11 am
  11       11       12 2
  12       11       13 1
  13       13       14 2
  14       14       15 1
  15       15       16 1
  16       16       17 1
  17       17       18 ar
  18       18       19 ar
  19       19       20 ar
  20       20       21 1
  21       20       22 ar
  22       22       23 ar
  23       23       17 ar
  24       15       24 1
  25       24       25 2
  26       25       13 1
  27       25       26 1
  28       26       27 ar
  29       27       28 ar
  30       28       29 ar
  31       29       30 1
  32       29       31 ar
  33       31       32 ar
  34       32       26 ar
  35        9       33 1
  36       33        6 2
  37       33       34 1
  38        7       35 1
  39        1       36 1
  40        1       37 1
  41        1       38 1
  42        2       39 1
  43        2       40 1
  44       10       41 1
  45       14       42 1
  46       16       43 1
  47       16       44 1
  48       18       45 1
  49       19       46 1
  50       21       47 1
  51       21       48 1
  52       21       49 1
  53       22       50 1
  54       23       51 1
  55       27       52 1
  56       28       53 1
  57       30       54 1
  58       30       55 1
  59       30       56 1
  60       31       57 1
  61       32       58 1
  62       34       59 1
  63       34       60 1
  64       34       61 1

@<TRIPOS>MOLECULE

  61   64
SMALL
USER_CHARGES
@<TRIPOS>ATOM
   1 C1           6.6352    -3.9630     1.0131 C.3          1    LIG   0.0000
   2 C2           6.8892    -2.4643     1.0091 C.3          1    LIG   0.0000
   3 O3           5.6484    -1.7739     1.0069 O.3          1    LIG   0.0000
   4 C4           5.7305    -0.4665     1.0034 C.2          1    LIG   0.0000
   5 O5           6.8053     0.0672     1.0022 O.2          1    LIG   0.0000
   6 C6           4.5227     0.3358     1.0008 C.2          1    LIG   0.0000
   7 N7           4.4544     1.6954     0.9972 N.pl3        1    LIG   0.0000
   8 N8           3.1847     2.0473     0.9950 N.2          1    LIG   0.0000
   9 C9           2.3993     1.0000     1.0000 C.2          1    LIG   0.0000
  10 N10          1.0000     1.0000     1.0000 N.am         1    LIG   0.0000
  11 C11          0.3150     2.1864     0.9926 C.2          1    LIG   0.0000
  12 O12          0.9150     3.2256     0.9861 O.2          1    LIG   0.0000
  13 C13         -1.1346     2.1864     0.9926 C.2          1    LIG   0.0000
  14 C14         -1.9412     2.1914     2.0895 C.2          1    LIG   0.0000
  15 N15         -3.2182     2.1880     1.6191 N.pl3        1    LIG   0.0000
  16 C16         -4.4219     2.1948     2.4622 C.3          1    LIG   0.0000
  17 C17         -4.8344     3.6300     2.7446 C.ar         1    LIG   0.0000
  18 C18         -4.3249     4.2798     3.8638 C.ar         1    LIG   0.0000
  19 C19         -4.7072     5.5931     4.1180 C.ar         1    LIG   0.0000
  20 C20         -5.5874     6.2399     3.2580 C.ar         1    LIG   0.0000
  21 C21         -5.9977     7.6758     3.5445 C.3          1    LIG   0.0000
  22 C22         -6.0927     5.5813     2.1412 C.ar         1    LIG   0.0000
  23 C23         -5.7159     4.2685     1.8784 C.ar         1    LIG   0.0000
  24 N24         -3.2033     2.1805     0.3057 N.2          1    LIG   0.0000
  25 C25         -1.9685     2.1794    -0.1402 C.2          1    LIG   0.0000
  26 C26         -1.5506     2.1739    -1.5284 C.ar         1    LIG   0.0000
  27 C27         -2.2415     1.3912    -2.4475 C.ar         1    LIG   0.0000
  28 C28         -1.8366     1.3889    -3.7783 C.ar         1    LIG   0.0000
  29 C29         -0.7517     2.1627    -4.1762 C.ar         1    LIG   0.0000
  30 C30         -0.3160     2.1542    -5.6316 C.3          1    LIG   0.0000
  31 C31         -0.0668     2.9438    -3.2503 C.ar         1    LIG   0.0000
  32 C32         -0.4648     2.9519    -1.9179 C.ar         1    LIG   0.0000
  33 C33          3.2440    -0.1283     1.0070 C.2          1    LIG   0.0000
  34 C34          2.8051    -1.5830     1.0160 C.3          1    LIG   0.0000
  35 H            5.2349     2.3205     0.9962 H            1    LIG   0.0000
  36 H            7.5090    -4.4492     1.0146 H            1    LIG   0.0000
  37 H            6.1145    -4.2106     1.8301 H            1    LIG   0.0000
  38 H            6.1149    -4.2150     0.1971 H            1    LIG   0.0000
  39 H            7.4095    -2.2123     1.8251 H            1    LIG   0.0000
  40 H            7.4100    -2.2167     0.1921 H            1    LIG   0.0000
  41 H            0.5000     0.1340     1.0054 H            1    LIG   0.0000
  42 H           -1.6535     2.1966     3.0472 H            1    LIG   0.0000
  43 H           -4.2273     1.7280     3.3249 H            1    LIG   0.0000
  44 H           -5.1641     1.7219     1.9873 H            1    LIG   0.0000
  45 H           -3.6918     3.8089     4.4781 H            1    LIG   0.0000
  46 H           -4.3487     6.0718     4.9195 H            1    LIG   0.0000
  47 H           -6.6296     7.9896     2.8358 H            1    LIG   0.0000
  48 H           -6.4474     7.7223     4.4364 H            1    LIG   0.0000
  49 H           -5.1859     8.2597     3.5496 H            1    LIG   0.0000
  50 H           -6.7268     6.0519     1.5277 H            1    LIG   0.0000
  51 H           -6.0742     3.7897     1.0769 H            1    LIG   0.0000
  52 H           -3.0204     0.8364    -2.1549 H            1    LIG   0.0000
  53 H           -2.3256     0.8310    -4.4488 H            1    LIG   0.0000
  54 H            0.4720     2.7589    -5.7472 H            1    LIG   0.0000
  55 H           -0.0643     1.2240    -5.8988 H            1    LIG   0.0000
  56 H           -1.0688     2.4740    -6.2069 H            1    LIG   0.0000
  57 H            0.7115     3.4992    -3.5431 H            1    LIG   0.0000
  58 H            0.0237     3.5104    -1.2475 H            1    LIG   0.0000
  59 H            3.6114    -2.1744     1.0197 H            1    LIG   0.0000
  60 H            2.2574    -1.7608     1.8336 H            1    LIG   0.0000
  61 H            2.2575    -1.7709     0.2006 H            1    LIG   0.0000
@<TRIPOS>BOND
   1        1        2 1
   2        2        3 1
   3        3        4 1
   4        4        5 2
   5        4        6 1
   6        6        7 1
   7        7        8 1
   8        8        9 2
   9        9       10 1
  10       10       11 am
  11       11       12 2
  12       11       13 1
  13       13       14 2
  14       14       15 1
  15       15       16 1
  16       16       17 1
  17       17       18 ar
  18       18       19 ar
  19       19       20 ar
  20       20       21 1
  21       20       22 ar
  22       22       23 ar
  23       23       17 ar
  24       15       24 1
  25       24       25 2
  26       25       13 1
  27       25       26 1
  28       26       27 ar
  29       27       28 ar
  30       28       29 ar
  31       29       30 1
  32       29       31 ar
  33       31       32 ar
  34       32       26 ar
  35        9       33 1
  36       33        6 2
  37       33       34 1
  38        7       35 1
  39        1       36 1
  40        1       37 1
  41        1       38 1
  42        2       39 1
  43        2       40 1
  44       10       41 1
  45       14       42 1
  46       16       43 1
  47       16       44 1
  48       18       45 1
  49       19       46 1
  50       21       47 1
  51       21       48 1
  52       21       49 1
  53       22       50 1
  54       23       51 1
  55       27       52 1
  56       28       53 1
  57       30       54 1
  58       30       55 1
  59       30       56 1
  60       31       57 1
  61       32       58 1
  62       34       59 1
  63       34       60 1
  64       34       61 1

@<TRIPOS>MOLECULE

  61   64
SMALL
USER_CHARGES
@<TRIPOS>ATOM
   1 C1           6.6352    -3.9630     1.0131 C.3          1    LIG   0.0000
   2 C2           6.8892    -2.4643     1.0091 C.3          1    LIG   0.0000
   3 O3           5.6484    -1.7739     1.0069 O.3          1    LIG   0.0000
   4 C4           5.7305    -0.4665     1.0034 C.2          1    LIG   0.0000
   5 O5           6.8053     0.0672     1.0022 O.2          1    LIG   0.0000
   6 C6           4.5227     0.3358     1.0008 C.2          1    LIG   0.0000
   7 N7           4.4544     1.6954     0.9972 N.pl3        1    LIG   0.0000
   8 N8           3.1847     2.0473     0.9950 N.2          1    LIG   0.0000
   9 C9           2.3993     1.0000     1.0000 C.2          1    LIG   0.0000
  10 N10          1.0000     1.0000     1.0000 N.am         1    LIG   0.0000
  11 C11          0.3150     2.1864     0.9926 C.2          1    LIG   0.0000
  12 O12          0.9150     3.2256     0.9861 O.2          1    LIG   0.0000
  13 C13         -1.1346     2.1864     0.9926 C.2          1    LIG   0.0000
  14 C14         -1.9412     2.1914     2.0895 C.2          1    LIG   0.0000
  15 N15         -3.2182     2.1880     1.6191 N.pl3        1    LIG   0.0000
  16 C16         -4.4219     2.1948     2.4622 C.3          1    LIG   0.0000
  17 C17         -4.8392     0.7643     2.7610 C.ar         1    LIG   0.0000
  18 C18         -5.7218     0.1166     1.9031 C.ar         1    LIG   0.0000
  19 C19         -6.1013    -1.1923     2.1824 C.ar         1    LIG   0.0000
  20 C20         -5.5988    -1.8370     3.3070 C.ar         1    LIG   0.0000
  21 C21         -6.0191    -3.2682     3.6023 C.3          1    LIG   0.0000
  22 C22         -4.7170    -1.1806     4.1601 C.ar         1    LIG   0.0000
  23 C23         -4.3312     0.1279     3.8888 C.ar         1    LIG   0.0000
  24 N24         -3.2033     2.1805     0.3057 N.2          1    LIG   0.0000
  25 C25         -1.9685     2.1794    -0.1402 C.2          1    LIG   0.0000
  26 C26         -1.5506     2.1739    -1.5284 C.ar         1    LIG   0.0000
  27 C27         -2.2415     1.3912    -2.4475 C.ar         1    LIG   0.0000
  28 C28         -1.8366     1.3889    -3.7783 C.ar         1    LIG   0.0000
  29 C29         -0.7517     2.1627    -4.1762 C.ar         1    LIG   0.0000
  30 C30         -0.3160     2.1542    -5.6316 C.3          1    LIG   0.0000
  31 C31         -0.0668     2.9438    -3.2503 C.ar         1    LIG   0.0000
  32 C32         -0.4648     2.9519    -1.9179 C.ar         1    LIG   0.0000
  33 C33          3.2440    -0.1283     1.0070 C.2          1    LIG   0.0000
  34 C34          2.8051    -1.5830     1.0160 C.3          1    LIG   0.0000
  35 H            5.2349     2.3205     0.9962 H            1    LIG   0.0000
  36 H            7.5090    -4.4492     1.0146 H            1    LIG   0.0000
  37 H            6.1145    -4.2106     1.8301 H            1    LIG   0.0000
  38 H            6.1149    -4.2150     0.1971 H            1    LIG   0.0000
  39 H            7.4095    -2.2123     1.8251 H            1    LIG   0.0000
  40 H            7.4100    -2.2167     0.1921 H            1    LIG   0.0000
  41 H            0.5000     0.1340     1.0054 H            1    LIG   0.0000
  42 H           -1.6535     2.1966     3.0472 H            1    LIG   0.0000
  43 H           -5.1626     2.6647     1.9820 H            1    LIG   0.0000
  44 H           -4.2257     2.6708     3.3195 H            1    LIG   0.0000
  45 H           -6.0792     0.5859     1.0956 H            1    LIG   0.0000
  46 H           -6.7357    -1.6695     1.5743 H            1    LIG   0.0000
  47 H           -5.5715    -3.5809     4.4400 H            1    LIG   0.0000
  48 H           -7.0114    -3.3065     3.7204 H            1    LIG   0.0000
  49 H           -5.7510    -3.8582     2.8408 H            1    LIG   0.0000
  50 H           -4.3606    -1.6496     4.9682 H            1    LIG   0.0000
  51 H           -3.6968     0.6052     4.4969 H            1    LIG   0.0000
  52 H           -3.0204     0.8364    -2.1549 H            1    LIG   0.0000
  53 H           -2.3256     0.8310    -4.4488 H            1    LIG   0.0000
  54 H            0.4720     2.7589    -5.7472 H            1    LIG   0.0000
  55 H           -0.0643     1.2240    -5.8988 H            1    LIG   0.0000
  56 H           -1.0688     2.4740    -6.2069 H            1    LIG   0.0000
  57 H            0.7115     3.4992    -3.5431 H            1    LIG   0.0000
  58 H            0.0237     3.5104    -1.2475 H            1    LIG   0.0000
  59 H            3.6114    -2.1744     1.0197 H            1    LIG   0.0000
  60 H            2.2574    -1.7608     1.8336 H            1    LIG   0.0000
  61 H            2.2575    -1.7709     0.2006 H            1    LIG   0.0000
@<TRIPOS>BOND
   1        1        2 1
   2        2        3 1
   3        3        4 1
   4        4        5 2
   5        4        6 1
   6        6        7 1
   7        7        8 1
   8        8        9 2
   9        9       10 1
  10       10       11 am
  11       11       12 2
  12       11       13 1
  13       13       14 2
  14       14       15 1
  15       15       16 1
  16       16       17 1
  17       17       18 ar
  18       18       19 ar
  19       19       20 ar
  20       20       21 1
  21       20       22 ar
  22       22       23 ar
  23       23       17 ar
  24       15       24 1
  25       24       25 2
  26       25       13 1
  27       25       26 1
  28       26       27 ar
  29       27       28 ar
  30       28       29 ar
  31       29       30 1
  32       29       31 ar
  33       31       32 ar
  34       32       26 ar
  35        9       33 1
  36       33        6 2
  37       33       34 1
  38        7       35 1
  39        1       36 1
  40        1       37 1
  41        1       38 1
  42        2       39 1
  43        2       40 1
  44       10       41 1
  45       14       42 1
  46       16       43 1
  47       16       44 1
  48       18       45 1
  49       19       46 1
  50       21       47 1
  51       21       48 1
  52       21       49 1
  53       22       50 1
  54       23       51 1
  55       27       52 1
  56       28       53 1
  57       30       54 1
  58       30       55 1
  59       30       56 1
  60       31       57 1
  61       32       58 1
  62       34       59 1
  63       34       60 1
  64       34       61 1

@<TRIPOS>MOLECULE

  61   64
SMALL
USER_CHARGES
@<TRIPOS>ATOM
   1 C1           6.6352    -3.9630     1.0131 C.3          1    LIG   0.0000
   2 C2           6.8892    -2.4643     1.0091 C.3          1    LIG   0.0000
   3 O3           5.6484    -1.7739     1.0069 O.3          1    LIG   0.0000
   4 C4           5.7305    -0.4665     1.0034 C.2          1    LIG   0.0000
   5 O5           6.8053     0.0672     1.0022 O.2          1    LIG   0.0000
   6 C6           4.5227     0.3358     1.0008 C.2          1    LIG   0.0000
   7 N7           4.4544     1.6954     0.9972 N.pl3        1    LIG   0.0000
   8 N8           3.1847     2.0473     0.9950 N.2          1    LIG   0.0000
   9 C9           2.3993     1.0000     1.0000 C.2          1    LIG   0.0000
  10 N10          1.0000     1.0000     1.0000 N.am         1    LIG   0.0000
  11 C11          0.3150     2.1864     0.9926 C.2          1    LIG   0.0000
  12 O12          0.9150     3.2256     0.9861 O.2          1    LIG   0.0000
  13 C13         -1.1346     2.1864     0.9926 C.2          1    LIG   0.0000
  14 C14         -1.9412     1.0895     0.9976 C.2          1    LIG   0.0000
  15 N15         -3.2182     1.5600     0.9942 N.pl3        1    LIG   0.0000
  16 C16         -4.4219     0.7169     1.0010 C.3          1    LIG   0.0000
  17 C17         -4.8344     0.4344     2.4361 C.ar         1    LIG   0.0000
  18 C18         -4.3249    -0.6848     3.0860 C.ar         1    LIG   0.0000
  19 C19         -4.7072    -0.9390     4.3992 C.ar         1    LIG   0.0000
  20 C20         -5.5874    -0.0789     5.0460 C.ar         1    LIG   0.0000
  21 C21         -5.9977    -0.3655     6.4819 C.3          1    LIG   0.0000
  22 C22         -6.0927     1.0378     4.3875 C.ar         1    LIG   0.0000
  23 C23         -5.7159     1.3006     3.0747 C.ar         1    LIG   0.0000
  24 N24         -3.2033     2.8733     0.9866 N.2          1    LIG   0.0000
  25 C25         -1.9685     3.3192     0.9855 C.2          1    LIG   0.0000
  26 C26         -1.5506     4.7074     0.9801 C.ar         1    LIG   0.0000
  27 C27         -2.2415     5.6265     0.1973 C.ar         1    LIG   0.0000
  28 C28         -1.8366     6.9573     0.1951 C.ar         1    LIG   0.0000
  29 C29         -0.7517     7.3552     0.9689 C.ar         1    LIG   0.0000
  30 C30         -0.3160     8.8107     0.9604 C.3          1    LIG   0.0000
  31 C31         -0.0668     6.4293     1.7499 C.ar         1    LIG   0.0000
  32 C32         -0.4648     5.0969     1.7581 C.ar         1    LIG   0.0000
  33 C33          3.2440    -0.1283     1.0070 C.2          1    LIG   0.0000
  34 C34          2.8051    -1.5830     1.0160 C.3          1    LIG   0.0000
  35 H            5.2349     2.3205     0.9962 H            1    LIG   0.0000
  36 H            7.5090    -4.4492     1.0146 H            1    LIG   0.0000
  37 H            6.1145    -4.2106     1.8301 H            1    LIG   0.0000
  38 H            6.1149    -4.2150     0.1971 H            1    LIG   0.0000
  39 H            7.4095    -2.2123     1.8251 H            1    LIG   0.0000
  40 H            7.4100    -2.2167     0.1921 H            1    LIG   0.0000
  41 H            0.5000     0.1340     1.0054 H            1    LIG   0.0000
  42 H           -1.6535     0.1318     1.0028 H            1    LIG   0.0000
  43 H           -4.2273    -0.1458     0.5342 H            1    LIG   0.0000
  44 H           -5.1641     1.1917     0.5281 H            1    LIG   0.0000
  45 H           -3.6918    -1.2991     2.6151 H            1    LIG   0.0000
  46 H           -4.3487    -1.7404     4.8780 H            1    LIG   0.0000
  47 H           -6.6296     0.3432     6.7958 H            1    LIG   0.0000
  48 H           -6.4474    -1.2574     6.5284 H            1    LIG   0.0000
  49 H           -5.1859    -0.3706     7.0659 H            1    LIG   0.0000
  50 H           -6.7268     1.6514     4.8581 H            1    LIG   0.0000
  51 H           -6.0742     2.1022     2.5959 H            1    LIG   0.0000
  52 H           -3.0204     5.3340    -0.3575 H            1    LIG   0.0000
  53 H           -2.3256     7.6278    -0.3628 H            1    LIG   0.0000
  54 H            0.4720     8.9262     1.5651 H            1    LIG   0.0000
  55 H           -0.0643     9.0778     0.0301 H            1    LIG   0.0000
  56 H           -1.0688     9.3859     1.2802 H            1    LIG   0.0000
  57 H            0.7115     6.7221     2.3053 H            1    LIG   0.0000
  58 H            0.0237     4.4265     2.3166 H            1    LIG   0.0000
  59 H            3.6114    -2.1744     1.0197 H            1    LIG   0.0000
  60 H            2.2574    -1.7608     1.8336 H            1    LIG   0.0000
  61 H            2.2575    -1.7709     0.2006 H            1    LIG   0.0000
@<TRIPOS>BOND
   1        1        2 1
   2        2        3 1
   3        3        4 1
   4        4        5 2
   5        4        6 1
   6        6        7 1
   7        7        8 1
   8        8        9 2
   9        9       10 1
  10       10       11 am
  11       11       12 2
  12       11       13 1
  13       13       14 2
  14       14       15 1
  15       15       16 1
  16       16       17 1
  17       17       18 ar
  18       18       19 ar
  19       19       20 ar
  20       20       21 1
  21       20       22 ar
  22       22       23 ar
  23       23       17 ar
  24       15       24 1
  25       24       25 2
  26       25       13 1
  27       25       26 1
  28       26       27 ar
  29       27       28 ar
  30       28       29 ar
  31       29       30 1
  32       29       31 ar
  33       31       32 ar
  34       32       26 ar
  35        9       33 1
  36       33        6 2
  37       33       34 1
  38        7       35 1
  39        1       36 1
  40        1       37 1
  41        1       38 1
  42        2       39 1
  43        2       40 1
  44       10       41 1
  45       14       42 1
  46       16       43 1
  47       16       44 1
  48       18       45 1
  49       19       46 1
  50       21       47 1
  51       21       48 1
  52       21       49 1
  53       22       50 1
  54       23       51 1
  55       27       52 1
  56       28       53 1
  57       30       54 1
  58       30       55 1
  59       30       56 1
  60       31       57 1
  61       32       58 1
  62       34       59 1
  63       34       60 1
  64       34       61 1

@<TRIPOS>MOLECULE

  61   64
SMALL
USER_CHARGES
@<TRIPOS>ATOM
   1 C1           6.6352    -3.9630     1.0131 C.3          1    LIG   0.0000
   2 C2           6.8892    -2.4643     1.0091 C.3          1    LIG   0.0000
   3 O3           5.6484    -1.7739     1.0069 O.3          1    LIG   0.0000
   4 C4           5.7305    -0.4665     1.0034 C.2          1    LIG   0.0000
   5 O5           6.8053     0.0672     1.0022 O.2          1    LIG   0.0000
   6 C6           4.5227     0.3358     1.0008 C.2          1    LIG   0.0000
   7 N7           4.4544     1.6954     0.9972 N.pl3        1    LIG   0.0000
   8 N8           3.1847     2.0473     0.9950 N.2          1    LIG   0.0000
   9 C9           2.3993     1.0000     1.0000 C.2          1    LIG   0.0000
  10 N10          1.0000     1.0000     1.0000 N.am         1    LIG   0.0000
  11 C11          0.3150     2.1864     0.9926 C.2          1    LIG   0.0000
  12 O12          0.9150     3.2256     0.9861 O.2          1    LIG   0.0000
  13 C13         -1.1346     2.1864     0.9926 C.2          1    LIG   0.0000
  14 C14         -1.9412     1.0895     0.9976 C.2          1    LIG   0.0000
  15 N15         -3.2182     1.5600     0.9942 N.pl3        1    LIG   0.0000
  16 C16         -4.4219     0.7169     1.0010 C.3          1    LIG   0.0000
  17 C17         -4.8392     0.4180    -0.4295 C.ar         1    LIG   0.0000
  18 C18         -5.7218     1.2759    -1.0772 C.ar         1    LIG   0.0000
  19 C19         -6.1013     0.9966    -2.3861 C.ar         1    LIG   0.0000
  20 C20         -5.5988    -0.1280    -3.0308 C.ar         1    LIG   0.0000
  21 C21         -6.0191    -0.4233    -4.4620 C.3          1    LIG   0.0000
  22 C22         -4.7170    -0.9811    -2.3744 C.ar         1    LIG   0.0000
  23 C23         -4.3312    -0.7098    -1.0659 C.ar         1    LIG   0.0000
  24 N24         -3.2033     2.8733     0.9866 N.2          1    LIG   0.0000
  25 C25         -1.9685     3.3192     0.9855 C.2          1    LIG   0.0000
  26 C26         -1.5506     4.7074     0.9801 C.ar         1    LIG   0.0000
  27 C27         -2.2415     5.6265     0.1973 C.ar         1    LIG   0.0000
  28 C28         -1.8366     6.9573     0.1951 C.ar         1    LIG   0.0000
  29 C29         -0.7517     7.3552     0.9689 C.ar         1    LIG   0.0000
  30 C30         -0.3160     8.8107     0.9604 C.3          1    LIG   0.0000
  31 C31         -0.0668     6.4293     1.7499 C.ar         1    LIG   0.0000
  32 C32         -0.4648     5.0969     1.7581 C.ar         1    LIG   0.0000
  33 C33          3.2440    -0.1283     1.0070 C.2          1    LIG   0.0000
  34 C34          2.8051    -1.5830     1.0160 C.3          1    LIG   0.0000
  35 H            5.2349     2.3205     0.9962 H            1    LIG   0.0000
  36 H            7.5090    -4.4492     1.0146 H            1    LIG   0.0000
  37 H            6.1145    -4.2106     1.8301 H            1    LIG   0.0000
  38 H            6.1149    -4.2150     0.1971 H            1    LIG   0.0000
  39 H            7.4095    -2.2123     1.8251 H            1    LIG   0.0000
  40 H            7.4100    -2.2167     0.1921 H            1    LIG   0.0000
  41 H            0.5000     0.1340     1.0054 H            1    LIG   0.0000
  42 H           -1.6535     0.1318     1.0028 H            1    LIG   0.0000
  43 H           -5.1626     1.1971     1.4709 H            1    LIG   0.0000
  44 H           -4.2257    -0.1404     1.4770 H            1    LIG   0.0000
  45 H           -6.0792     2.0834    -0.6079 H            1    LIG   0.0000
  46 H           -6.7357     1.6048    -2.8634 H            1    LIG   0.0000
  47 H           -5.5715    -1.2610    -4.7748 H            1    LIG   0.0000
  48 H           -7.0114    -0.5413    -4.5003 H            1    LIG   0.0000
  49 H           -5.7510     0.3382    -5.0521 H            1    LIG   0.0000
  50 H           -4.3606    -1.7892    -2.8434 H            1    LIG   0.0000
  51 H           -3.6968    -1.3179    -0.5887 H            1    LIG   0.0000
  52 H           -3.0204     5.3340    -0.3575 H            1    LIG   0.0000
  53 H           -2.3256     7.6278    -0.3628 H            1    LIG   0.0000
  54 H            0.4720     8.9262     1.5651 H            1    LIG   0.0000
  55 H           -0.0643     9.0778     0.0301 H            1    LIG   0.0000
  56 H           -1.0688     9.3859     1.2802 H            1    LIG   0.0000
  57 H            0.7115     6.7221     2.3053 H            1    LIG   0.0000
  58 H            0.0237     4.4265     2.3166 H            1    LIG   0.0000
  59 H            3.6114    -2.1744     1.0197 H            1    LIG   0.0000
  60 H            2.2574    -1.7608     1.8336 H            1    LIG   0.0000
  61 H            2.2575    -1.7709     0.2006 H            1    LIG   0.0000
@<TRIPOS>BOND
   1        1        2 1
   2        2        3 1
   3        3        4 1
   4        4        5 2
   5        4        6 1
   6        6        7 1
   7        7        8 1
   8        8        9 2
   9        9       10 1
  10       10       11 am
  11       11       12 2
  12       11       13 1
  13       13       14 2
  14       14       15 1
  15       15       16 1
  16       16       17 1
  17       17       18 ar
  18       18       19 ar
  19       19       20 ar
  20       20       21 1
  21       20       22 ar
  22       22       23 ar
  23       23       17 ar
  24       15       24 1
  25       24       25 2
  26       25       13 1
  27       25       26 1
  28       26       27 ar
  29       27       28 ar
  30       28       29 ar
  31       29       30 1
  32       29       31 ar
  33       31       32 ar
  34       32       26 ar
  35        9       33 1
  36       33        6 2
  37       33       34 1
  38        7       35 1
  39        1       36 1
  40        1       37 1
  41        1       38 1
  42        2       39 1
  43        2       40 1
  44       10       41 1
  45       14       42 1
  46       16       43 1
  47       16       44 1
  48       18       45 1
  49       19       46 1
  50       21       47 1
  51       21       48 1
  52       21       49 1
  53       22       50 1
  54       23       51 1
  55       27       52 1
  56       28       53 1
  57       30       54 1
  58       30       55 1
  59       30       56 1
  60       31       57 1
  61       32       58 1
  62       34       59 1
  63       34       60 1
  64       34       61 1

@<TRIPOS>MOLECULE

  61   64
SMALL
USER_CHARGES
@<TRIPOS>ATOM
   1 C1           8.4205    -1.0764    -0.4273 C.3          1    LIG   0.0000
   2 C2           8.0214    -0.7599     1.0048 C.3          1    LIG   0.0000
   3 O3           6.9038     0.1161     1.0021 O.3          1    LIG   0.0000
   4 C4           5.7305    -0.4665     1.0034 C.2          1    LIG   0.0000
   5 O5           5.6553    -1.6641     1.0066 O.2          1    LIG   0.0000
   6 C6           4.5227     0.3358     1.0008 C.2          1    LIG   0.0000
   7 N7           4.4544     1.6954     0.9972 N.pl3        1    LIG   0.0000
   8 N8           3.1847     2.0473     0.9950 N.2          1    LIG   0.0000
   9 C9           2.3993     1.0000     1.0000 C.2          1    LIG   0.0000
  10 N10          1.0000     1.0000     1.0000 N.am         1    LIG   0.0000
  11 C11          0.3150     2.1864     0.9926 C.2          1    LIG   0.0000
  12 O12          0.7944     3.1593     1.5061 O.2          1    LIG   0.0000
  13 C13         -0.9889     2.2666     0.3644 C.2          1    LIG   0.0000
  14 C14         -1.2397     2.5813    -0.9364 C.2          1    LIG   0.0000
  15 N15         -2.5920     2.5373    -1.0815 N.pl3        1    LIG   0.0000
  16 C16         -3.3096     2.8086    -2.3350 C.3          1    LIG   0.0000
  17 C17         -3.4714     1.5151    -3.1163 C.ar         1    LIG   0.0000
  18 C18         -2.4894     1.1394    -4.0268 C.ar         1    LIG   0.0000
  19 C19         -2.6435    -0.0450    -4.7401 C.ar         1    LIG   0.0000
  20 C20         -3.7681    -0.8370    -4.5380 C.ar         1    LIG   0.0000
  21 C21         -3.9260    -2.1303    -5.3220 C.3          1    LIG   0.0000
  22 C22         -4.7458    -0.4525    -3.6257 C.ar         1    LIG   0.0000
  23 C23         -4.6003     0.7297    -2.9074 C.ar         1    LIG   0.0000
  24 N24         -3.1473     2.2146     0.0642 N.2          1    LIG   0.0000
  25 C25         -2.2296     2.0357     0.9858 C.2          1    LIG   0.0000
  26 C26         -2.4545     1.6699     2.3705 C.ar         1    LIG   0.0000
  27 C27         -3.4303     0.7277     2.6790 C.ar         1    LIG   0.0000
  28 C28         -3.6427     0.3801     4.0091 C.ar         1    LIG   0.0000
  29 C29         -2.8844     0.9737     5.0124 C.ar         1    LIG   0.0000
  30 C30         -3.1232     0.5885     6.4625 C.3          1    LIG   0.0000
  31 C31         -1.9096     1.9145     4.6947 C.ar         1    LIG   0.0000
  32 C32         -1.6906     2.2679     3.3677 C.ar         1    LIG   0.0000
  33 C33          3.2440    -0.1283     1.0070 C.2          1    LIG   0.0000
  34 C34          2.8051    -1.5830     1.0160 C.3          1    LIG   0.0000
  35 H            5.2349     2.3205     0.9962 H            1    LIG   0.0000
  36 H            9.2076    -1.6933    -0.4254 H            1    LIG   0.0000
  37 H            7.6546    -1.5146    -0.8977 H            1    LIG   0.0000
  38 H            8.6621    -0.2294    -0.9009 H            1    LIG   0.0000
  39 H            7.7798    -1.6069     1.4785 H            1    LIG   0.0000
  40 H            8.7873    -0.3217     1.4753 H            1    LIG   0.0000
  41 H            0.5000     0.1340     1.0054 H            1    LIG   0.0000
  42 H           -0.5662     2.8004    -1.6424 H            1    LIG   0.0000
  43 H           -2.7897     3.4652    -2.8814 H            1    LIG   0.0000
  44 H           -4.2114     3.1877    -2.1275 H            1    LIG   0.0000
  45 H           -1.6827     1.7135    -4.1670 H            1    LIG   0.0000
  46 H           -1.9453    -0.3267    -5.3982 H            1    LIG   0.0000
  47 H           -4.7820    -2.5763    -5.0604 H            1    LIG   0.0000
  48 H           -3.9418    -1.9268    -6.3010 H            1    LIG   0.0000
  49 H           -3.1582    -2.7383    -5.1203 H            1    LIG   0.0000
  50 H           -5.5530    -1.0260    -3.4864 H            1    LIG   0.0000
  51 H           -5.2984     1.0113    -2.2491 H            1    LIG   0.0000
  52 H           -3.9727     0.3050     1.9530 H            1    LIG   0.0000
  53 H           -4.3407    -0.2965     4.2437 H            1    LIG   0.0000
  54 H           -2.4997     1.1031     7.0511 H            1    LIG   0.0000
  55 H           -4.0681     0.8000     6.7123 H            1    LIG   0.0000
  56 H           -2.9590    -0.3910     6.5786 H            1    LIG   0.0000
  57 H           -1.3666     2.3366     5.4207 H            1    LIG   0.0000
  58 H           -0.9921     2.9440     3.1329 H            1    LIG   0.0000
  59 H            3.6114    -2.1744     1.0197 H            1    LIG   0.0000
  60 H            2.2574    -1.7608     1.8336 H            1    LIG   0.0000
  61 H            2.2575    -1.7709     0.2006 H            1    LIG   0.0000
@<TRIPOS>BOND
   1        1        2 1
   2        2        3 1
   3        3        4 1
   4        4        5 2
   5        4        6 1
   6        6        7 1
   7        7        8 1
   8        8        9 2
   9        9       10 1
  10       10       11 am
  11       11       12 2
  12       11       13 1
  13       13       14 2
  14       14       15 1
  15       15       16 1
  16       16       17 1
  17       17       18 ar
  18       18       19 ar
  19       19       20 ar
  20       20       21 1
  21       20       22 ar
  22       22       23 ar
  23       23       17 ar
  24       15       24 1
  25       24       25 2
  26       25       13 1
  27       25       26 1
  28       26       27 ar
  29       27       28 ar
  30       28       29 ar
  31       29       30 1
  32       29       31 ar
  33       31       32 ar
  34       32       26 ar
  35        9       33 1
  36       33        6 2
  37       33       34 1
  38        7       35 1
  39        1       36 1
  40        1       37 1
  41        1       38 1
  42        2       39 1
  43        2       40 1
  44       10       41 1
  45       14       42 1
  46       16       43 1
  47       16       44 1
  48       18       45 1
  49       19       46 1
  50       21       47 1
  51       21       48 1
  52       21       49 1
  53       22       50 1
  54       23       51 1
  55       27       52 1
  56       28       53 1
  57       30       54 1
  58       30       55 1
  59       30       56 1
  60       31       57 1
  61       32       58 1
  62       34       59 1
  63       34       60 1
  64       34       61 1

@<TRIPOS>MOLECULE

  61   64
SMALL
USER_CHARGES
@<TRIPOS>ATOM
   1 C1           8.4205    -1.0764    -0.4273 C.3          1    LIG   0.0000
   2 C2           8.0214    -0.7599     1.0048 C.3          1    LIG   0.0000
   3 O3           6.9038     0.1161     1.0021 O.3          1    LIG   0.0000
   4 C4           5.7305    -0.4665     1.0034 C.2          1    LIG   0.0000
   5 O5           5.6553    -1.6641     1.0066 O.2          1    LIG   0.0000
   6 C6           4.5227     0.3358     1.0008 C.2          1    LIG   0.0000
   7 N7           4.4544     1.6954     0.9972 N.pl3        1    LIG   0.0000
   8 N8           3.1847     2.0473     0.9950 N.2          1    LIG   0.0000
   9 C9           2.3993     1.0000     1.0000 C.2          1    LIG   0.0000
  10 N10          1.0000     1.0000     1.0000 N.am         1    LIG   0.0000
  11 C11          0.3150     2.1864     0.9926 C.2          1    LIG   0.0000
  12 O12          0.7944     3.1593     1.5061 O.2          1    LIG   0.0000
  13 C13         -0.9889     2.2666     0.3644 C.2          1    LIG   0.0000
  14 C14         -1.2397     2.5813    -0.9364 C.2          1    LIG   0.0000
  15 N15         -2.5920     2.5373    -1.0815 N.pl3        1    LIG   0.0000
  16 C16         -3.3096     2.8086    -2.3350 C.3          1    LIG   0.0000
  17 C17         -3.6426     4.2892    -2.4179 C.ar         1    LIG   0.0000
  18 C18         -4.8470     4.7490    -1.8960 C.ar         1    LIG   0.0000
  19 C19         -5.1470     6.1051    -1.9759 C.ar         1    LIG   0.0000
  20 C20         -4.2475     6.9822    -2.5713 C.ar         1    LIG   0.0000
  21 C21         -4.5848     8.4627    -2.6523 C.3          1    LIG   0.0000
  22 C22         -3.0454     6.5128    -3.0916 C.ar         1    LIG   0.0000
  23 C23         -2.7363     5.1588    -3.0158 C.ar         1    LIG   0.0000
  24 N24         -3.1473     2.2146     0.0642 N.2          1    LIG   0.0000
  25 C25         -2.2296     2.0357     0.9858 C.2          1    LIG   0.0000
  26 C26         -2.4545     1.6699     2.3705 C.ar         1    LIG   0.0000
  27 C27         -3.4303     0.7277     2.6790 C.ar         1    LIG   0.0000
  28 C28         -3.6427     0.3801     4.0091 C.ar         1    LIG   0.0000
  29 C29         -2.8844     0.9737     5.0124 C.ar         1    LIG   0.0000
  30 C30         -3.1232     0.5885     6.4625 C.3          1    LIG   0.0000
  31 C31         -1.9096     1.9145     4.6947 C.ar         1    LIG   0.0000
  32 C32         -1.6906     2.2679     3.3677 C.ar         1    LIG   0.0000
  33 C33          3.2440    -0.1283     1.0070 C.2          1    LIG   0.0000
  34 C34          2.8051    -1.5830     1.0160 C.3          1    LIG   0.0000
  35 H            5.2349     2.3205     0.9962 H            1    LIG   0.0000
  36 H            9.2076    -1.6933    -0.4254 H            1    LIG   0.0000
  37 H            7.6546    -1.5146    -0.8977 H            1    LIG   0.0000
  38 H            8.6621    -0.2294    -0.9009 H            1    LIG   0.0000
  39 H            7.7798    -1.6069     1.4785 H            1    LIG   0.0000
  40 H            8.7873    -0.3217     1.4753 H            1    LIG   0.0000
  41 H            0.5000     0.1340     1.0054 H            1    LIG   0.0000
  42 H           -0.5662     2.8004    -1.6424 H            1    LIG   0.0000
  43 H           -4.1551     2.2751    -2.3573 H            1    LIG   0.0000
  44 H           -2.7333     2.5526    -3.1111 H            1    LIG   0.0000
  45 H           -5.4893     4.1128    -1.4686 H            1    LIG   0.0000
  46 H           -6.0097     6.4490    -1.6051 H            1    LIG   0.0000
  47 H           -3.8387     8.9502    -3.1058 H            1    LIG   0.0000
  48 H           -5.4286     8.5842    -3.1750 H            1    LIG   0.0000
  49 H           -4.7089     8.8273    -1.7294 H            1    LIG   0.0000
  50 H           -2.4037     7.1490    -3.5200 H            1    LIG   0.0000
  51 H           -1.8736     4.8149    -3.3865 H            1    LIG   0.0000
  52 H           -3.9727     0.3050     1.9530 H            1    LIG   0.0000
  53 H           -4.3407    -0.2965     4.2437 H            1    LIG   0.0000
  54 H           -2.4997     1.1031     7.0511 H            1    LIG   0.0000
  55 H           -4.0681     0.8000     6.7123 H            1    LIG   0.0000
  56 H           -2.9590    -0.3910     6.5786 H            1    LIG   0.0000
  57 H           -1.3666     2.3366     5.4207 H            1    LIG   0.0000
  58 H           -0.9921     2.9440     3.1329 H            1    LIG   0.0000
  59 H            3.6114    -2.1744     1.0197 H            1    LIG   0.0000
  60 H            2.2574    -1.7608     1.8336 H            1    LIG   0.0000
  61 H            2.2575    -1.7709     0.2006 H            1    LIG   0.0000
@<TRIPOS>BOND
   1        1        2 1
   2        2        3 1
   3        3        4 1
   4        4        5 2
   5        4        6 1
   6        6        7 1
   7        7        8 1
   8        8        9 2
   9        9       10 1
  10       10       11 am
  11       11       12 2
  12       11       13 1
  13       13       14 2
  14       14       15 1
  15       15       16 1
  16       16       17 1
  17       17       18 ar
  18       18       19 ar
  19       19       20 ar
  20       20       21 1
  21       20       22 ar
  22       22       23 ar
  23       23       17 ar
  24       15       24 1
  25       24       25 2
  26       25       13 1
  27       25       26 1
  28       26       27 ar
  29       27       28 ar
  30       28       29 ar
  31       29       30 1
  32       29       31 ar
  33       31       32 ar
  34       32       26 ar
  35        9       33 1
  36       33        6 2
  37       33       34 1
  38        7       35 1
  39        1       36 1
  40        1       37 1
  41        1       38 1
  42        2       39 1
  43        2       40 1
  44       10       41 1
  45       14       42 1
  46       16       43 1
  47       16       44 1
  48       18       45 1
  49       19       46 1
  50       21       47 1
  51       21       48 1
  52       21       49 1
  53       22       50 1
  54       23       51 1
  55       27       52 1
  56       28       53 1
  57       30       54 1
  58       30       55 1
  59       30       56 1
  60       31       57 1
  61       32       58 1
  62       34       59 1
  63       34       60 1
  64       34       61 1

@<TRIPOS>MOLECULE

  61   64
SMALL
USER_CHARGES
@<TRIPOS>ATOM
   1 C1           8.4205    -1.0764    -0.4273 C.3          1    LIG   0.0000
   2 C2           8.0214    -0.7599     1.0048 C.3          1    LIG   0.0000
   3 O3           6.9038     0.1161     1.0021 O.3          1    LIG   0.0000
   4 C4           5.7305    -0.4665     1.0034 C.2          1    LIG   0.0000
   5 O5           5.6553    -1.6641     1.0066 O.2          1    LIG   0.0000
   6 C6           4.5227     0.3358     1.0008 C.2          1    LIG   0.0000
   7 N7           4.4544     1.6954     0.9972 N.pl3        1    LIG   0.0000
   8 N8           3.1847     2.0473     0.9950 N.2          1    LIG   0.0000
   9 C9           2.3993     1.0000     1.0000 C.2          1    LIG   0.0000
  10 N10          1.0000     1.0000     1.0000 N.am         1    LIG   0.0000
  11 C11          0.3150     2.1864     0.9926 C.2          1    LIG   0.0000
  12 O12          0.7944     3.1593     1.5061 O.2          1    LIG   0.0000
  13 C13         -0.9889     2.2666     0.3644 C.2          1    LIG   0.0000
  14 C14         -2.1894     2.0412     0.9660 C.2          1    LIG   0.0000
  15 N15         -3.1343     2.2263     0.0044 N.pl3        1    LIG   0.0000
  16 C16         -4.5822     2.0882     0.2146 C.3          1    LIG   0.0000
  17 C17         -5.1627     3.4273     0.6383 C.ar         1    LIG   0.0000
  18 C18         -5.2280     3.7467     1.9904 C.ar         1    LIG   0.0000
  19 C19         -5.7616     4.9734     2.3724 C.ar         1    LIG   0.0000
  20 C20         -6.2205     5.8628     1.4074 C.ar         1    LIG   0.0000
  21 C21         -6.8007     7.2015     1.8358 C.3          1    LIG   0.0000
  22 C22         -6.1519     5.5341     0.0571 C.ar         1    LIG   0.0000
  23 C23         -5.6196     4.3103    -0.3347 C.ar         1    LIG   0.0000
  24 N24         -2.5522     2.5474    -1.1284 N.2          1    LIG   0.0000
  25 C25         -1.2485     2.5898    -0.9798 C.2          1    LIG   0.0000
  26 C26         -0.2717     2.9094    -2.0022 C.ar         1    LIG   0.0000
  27 C27         -0.5406     3.9281    -2.9104 C.ar         1    LIG   0.0000
  28 C28          0.3996     4.2309    -3.8899 C.ar         1    LIG   0.0000
  29 C29          1.5916     3.5174    -3.9536 C.ar         1    LIG   0.0000
  30 C30          2.6128     3.8544    -5.0267 C.3          1    LIG   0.0000
  31 C31          1.8530     2.5005    -3.0403 C.ar         1    LIG   0.0000
  32 C32          0.9187     2.1912    -2.0579 C.ar         1    LIG   0.0000
  33 C33          3.2440    -0.1283     1.0070 C.2          1    LIG   0.0000
  34 C34          2.8051    -1.5830     1.0160 C.3          1    LIG   0.0000
  35 H            5.2349     2.3205     0.9962 H            1    LIG   0.0000
  36 H            9.2076    -1.6933    -0.4254 H            1    LIG   0.0000
  37 H            7.6546    -1.5146    -0.8977 H            1    LIG   0.0000
  38 H            8.6621    -0.2294    -0.9009 H            1    LIG   0.0000
  39 H            7.7798    -1.6069     1.4785 H            1    LIG   0.0000
  40 H            8.7873    -0.3217     1.4753 H            1    LIG   0.0000
  41 H            0.5000     0.1340     1.0054 H            1    LIG   0.0000
  42 H           -2.3452     1.7902     1.9214 H            1    LIG   0.0000
  43 H           -4.7521     1.4101     0.9296 H            1    LIG   0.0000
  44 H           -5.0157     1.7912    -0.6362 H            1    LIG   0.0000
  45 H           -4.8957     3.1026     2.6794 H            1    LIG   0.0000
  46 H           -5.8150     5.2155     3.3412 H            1    LIG   0.0000
  47 H           -7.0816     7.7173     1.0265 H            1    LIG   0.0000
  48 H           -7.5940     7.0477     2.4250 H            1    LIG   0.0000
  49 H           -6.1082     7.7197     2.3376 H            1    LIG   0.0000
  50 H           -6.4854     6.1778    -0.6318 H            1    LIG   0.0000
  51 H           -5.5660     4.0683    -1.3035 H            1    LIG   0.0000
  52 H           -1.4000     4.4369    -2.8598 H            1    LIG   0.0000
  53 H            0.2183     4.9615    -4.5481 H            1    LIG   0.0000
  54 H            3.4060     3.2528    -4.9328 H            1    LIG   0.0000
  55 H            2.2023     3.7263    -5.9295 H            1    LIG   0.0000
  56 H            2.9024     4.8061    -4.9243 H            1    LIG   0.0000
  57 H            2.7127     1.9923    -3.0905 H            1    LIG   0.0000
  58 H            1.1002     1.4610    -1.3992 H            1    LIG   0.0000
  59 H            3.6114    -2.1744     1.0197 H            1    LIG   0.0000
  60 H            2.2574    -1.7608     1.8336 H            1    LIG   0.0000
  61 H            2.2575    -1.7709     0.2006 H            1    LIG   0.0000
@<TRIPOS>BOND
   1        1        2 1
   2        2        3 1
   3        3        4 1
   4        4        5 2
   5        4        6 1
   6        6        7 1
   7        7        8 1
   8        8        9 2
   9        9       10 1
  10       10       11 am
  11       11       12 2
  12       11       13 1
  13       13       14 2
  14       14       15 1
  15       15       16 1
  16       16       17 1
  17       17       18 ar
  18       18       19 ar
  19       19       20 ar
  20       20       21 1
  21       20       22 ar
  22       22       23 ar
  23       23       17 ar
  24       15       24 1
  25       24       25 2
  26       25       13 1
  27       25       26 1
  28       26       27 ar
  29       27       28 ar
  30       28       29 ar
  31       29       30 1
  32       29       31 ar
  33       31       32 ar
  34       32       26 ar
  35        9       33 1
  36       33        6 2
  37       33       34 1
  38        7       35 1
  39        1       36 1
  40        1       37 1
  41        1       38 1
  42        2       39 1
  43        2       40 1
  44       10       41 1
  45       14       42 1
  46       16       43 1
  47       16       44 1
  48       18       45 1
  49       19       46 1
  50       21       47 1
  51       21       48 1
  52       21       49 1
  53       22       50 1
  54       23       51 1
  55       27       52 1
  56       28       53 1
  57       30       54 1
  58       30       55 1
  59       30       56 1
  60       31       57 1
  61       32       58 1
  62       34       59 1
  63       34       60 1
  64       34       61 1

@<TRIPOS>MOLECULE

  61   64
SMALL
USER_CHARGES
@<TRIPOS>ATOM
   1 C1           8.4197    -1.0686     2.4389 C.3          1    LIG   0.0000
   2 C2           8.0214    -0.7599     1.0048 C.3          1    LIG   0.0000
   3 O3           6.9038     0.1161     1.0021 O.3          1    LIG   0.0000
   4 C4           5.7305    -0.4665     1.0034 C.2          1    LIG   0.0000
   5 O5           5.6553    -1.6641     1.0066 O.2          1    LIG   0.0000
   6 C6           4.5227     0.3358     1.0008 C.2          1    LIG   0.0000
   7 N7           4.4544     1.6954     0.9972 N.pl3        1    LIG   0.0000
   8 N8           3.1847     2.0473     0.9950 N.2          1    LIG   0.0000
   9 C9           2.3993     1.0000     1.0000 C.2          1    LIG   0.0000
  10 N10          1.0000     1.0000     1.0000 N.am         1    LIG   0.0000
  11 C11          0.3150     2.1864     0.9926 C.2          1    LIG   0.0000
  12 O12          0.7944     3.1528     0.4669 O.2          1    LIG   0.0000
  13 C13         -0.9889     2.2744     1.6197 C.2          1    LIG   0.0000
  14 C14         -2.1896     2.0450     1.0201 C.2          1    LIG   0.0000
  15 N15         -3.1346     2.2432     1.9790 N.pl3        1    LIG   0.0000
  16 C16         -4.5823     2.0995     1.7714 C.3          1    LIG   0.0000
  17 C17         -4.9964     0.6670     2.0650 C.ar         1    LIG   0.0000
  18 C18         -4.9872    -0.2711     1.0381 C.ar         1    LIG   0.0000
  19 C19         -5.3686    -1.5806     1.3125 C.ar         1    LIG   0.0000
  20 C20         -5.7518    -1.9378     2.6002 C.ar         1    LIG   0.0000
  21 C21         -6.1657    -3.3721     2.8895 C.3          1    LIG   0.0000
  22 C22         -5.7589    -0.9921     3.6209 C.ar         1    LIG   0.0000
  23 C23         -5.3787     0.3194     3.3565 C.ar         1    LIG   0.0000
  24 N24         -2.5524     2.5771     3.1081 N.2          1    LIG   0.0000
  25 C25         -1.2485     2.6144     2.9598 C.2          1    LIG   0.0000
  26 C26         -0.2713     2.9404     3.9798 C.ar         1    LIG   0.0000
  27 C27         -0.4497     2.4647     5.2747 C.ar         1    LIG   0.0000
  28 C28          0.4904     2.7804     6.2501 C.ar         1    LIG   0.0000
  29 C29          1.5925     3.5642     5.9257 C.ar         1    LIG   0.0000
  30 C30          2.6143     3.9045     6.9972 C.3          1    LIG   0.0000
  31 C31          1.7638     4.0350     4.6275 C.ar         1    LIG   0.0000
  32 C32          0.8288     3.7242     3.6462 C.ar         1    LIG   0.0000
  33 C33          3.2440    -0.1283     1.0070 C.2          1    LIG   0.0000
  34 C34          2.8051    -1.5830     1.0160 C.3          1    LIG   0.0000
  35 H            5.2349     2.3205     0.9962 H            1    LIG   0.0000
  36 H            9.2067    -1.6856     2.4408 H            1    LIG   0.0000
  37 H            8.6610    -0.2191     2.9080 H            1    LIG   0.0000
  38 H            7.6535    -1.5043     2.9112 H            1    LIG   0.0000
  39 H            8.7876    -0.3242     0.5325 H            1    LIG   0.0000
  40 H            7.7801    -1.6094     0.5356 H            1    LIG   0.0000
  41 H            0.5000     0.1340     1.0054 H            1    LIG   0.0000
  42 H           -2.3455     1.7838     0.0675 H            1    LIG   0.0000
  43 H           -4.8069     2.3237     0.8231 H            1    LIG   0.0000
  44 H           -5.0704     2.7200     2.3852 H            1    LIG   0.0000
  45 H           -4.7099    -0.0076     0.1142 H            1    LIG   0.0000
  46 H           -5.3670    -2.2649     0.5833 H            1    LIG   0.0000
  47 H           -6.4096    -3.4603     3.8553 H            1    LIG   0.0000
  48 H           -6.9542    -3.6122     2.3232 H            1    LIG   0.0000
  49 H           -5.4054    -3.9871     2.6802 H            1    LIG   0.0000
  50 H           -6.0373    -1.2555     4.5446 H            1    LIG   0.0000
  51 H           -5.3800     1.0037     4.0857 H            1    LIG   0.0000
  52 H           -1.2447     1.9022     5.5018 H            1    LIG   0.0000
  53 H            0.3738     2.4439     7.1845 H            1    LIG   0.0000
  54 H            3.3373     4.4703     6.6007 H            1    LIG   0.0000
  55 H            2.1666     4.4062     7.7375 H            1    LIG   0.0000
  56 H            3.0117     3.0611     7.3588 H            1    LIG   0.0000
  57 H            2.5592     4.5968     4.4002 H            1    LIG   0.0000
  58 H            0.9457     4.0602     2.7116 H            1    LIG   0.0000
  59 H            3.6114    -2.1744     1.0197 H            1    LIG   0.0000
  60 H            2.2574    -1.7608     1.8336 H            1    LIG   0.0000
  61 H            2.2575    -1.7709     0.2006 H            1    LIG   0.0000
@<TRIPOS>BOND
   1        1        2 1
   2        2        3 1
   3        3        4 1
   4        4        5 2
   5        4        6 1
   6        6        7 1
   7        7        8 1
   8        8        9 2
   9        9       10 1
  10       10       11 am
  11       11       12 2
  12       11       13 1
  13       13       14 2
  14       14       15 1
  15       15       16 1
  16       16       17 1
  17       17       18 ar
  18       18       19 ar
  19       19       20 ar
  20       20       21 1
  21       20       22 ar
  22       22       23 ar
  23       23       17 ar
  24       15       24 1
  25       24       25 2
  26       25       13 1
  27       25       26 1
  28       26       27 ar
  29       27       28 ar
  30       28       29 ar
  31       29       30 1
  32       29       31 ar
  33       31       32 ar
  34       32       26 ar
  35        9       33 1
  36       33        6 2
  37       33       34 1
  38        7       35 1
  39        1       36 1
  40        1       37 1
  41        1       38 1
  42        2       39 1
  43        2       40 1
  44       10       41 1
  45       14       42 1
  46       16       43 1
  47       16       44 1
  48       18       45 1
  49       19       46 1
  50       21       47 1
  51       21       48 1
  52       21       49 1
  53       22       50 1
  54       23       51 1
  55       27       52 1
  56       28       53 1
  57       30       54 1
  58       30       55 1
  59       30       56 1
  60       31       57 1
  61       32       58 1
  62       34       59 1
  63       34       60 1
  64       34       61 1

@<TRIPOS>MOLECULE

  61   64
SMALL
USER_CHARGES
@<TRIPOS>ATOM
   1 C1           8.4197    -1.0686     2.4389 C.3          1    LIG   0.0000
   2 C2           8.0214    -0.7599     1.0048 C.3          1    LIG   0.0000
   3 O3           6.9038     0.1161     1.0021 O.3          1    LIG   0.0000
   4 C4           5.7305    -0.4665     1.0034 C.2          1    LIG   0.0000
   5 O5           5.6553    -1.6641     1.0066 O.2          1    LIG   0.0000
   6 C6           4.5227     0.3358     1.0008 C.2          1    LIG   0.0000
   7 N7           4.4544     1.6954     0.9972 N.pl3        1    LIG   0.0000
   8 N8           3.1847     2.0473     0.9950 N.2          1    LIG   0.0000
   9 C9           2.3993     1.0000     1.0000 C.2          1    LIG   0.0000
  10 N10          1.0000     1.0000     1.0000 N.am         1    LIG   0.0000
  11 C11          0.3150     2.1864     0.9926 C.2          1    LIG   0.0000
  12 O12          0.7944     3.1528     0.4669 O.2          1    LIG   0.0000
  13 C13         -0.9889     2.2744     1.6197 C.2          1    LIG   0.0000
  14 C14         -1.2395     2.6018     2.9174 C.2          1    LIG   0.0000
  15 N15         -2.5918     2.5587     3.0633 N.pl3        1    LIG   0.0000
  16 C16         -3.3095     2.8486     4.3126 C.3          1    LIG   0.0000
  17 C17         -3.4763     1.5659     5.1104 C.ar         1    LIG   0.0000
  18 C18         -4.6062     0.7795     4.9117 C.ar         1    LIG   0.0000
  19 C19         -4.7541    -0.3928     5.6458 C.ar         1    LIG   0.0000
  20 C20         -3.7790    -0.7660     6.5639 C.ar         1    LIG   0.0000
  21 C21         -3.9500    -2.0501     7.3602 C.3          1    LIG   0.0000
  22 C22         -2.6525     0.0276     6.7566 C.ar         1    LIG   0.0000
  23 C23         -2.4954     1.2012     6.0269 C.ar         1    LIG   0.0000
  24 N24         -3.1471     2.2230     1.9214 N.2          1    LIG   0.0000
  25 C25         -2.2296     2.0358     1.0013 C.2          1    LIG   0.0000
  26 C26         -2.4549     1.6590    -0.3804 C.ar         1    LIG   0.0000
  27 C27         -3.5212     2.2187    -1.0767 C.ar         1    LIG   0.0000
  28 C28         -3.7336     1.8538    -2.4021 C.ar         1    LIG   0.0000
  29 C29         -2.8853     0.9385    -3.0157 C.ar         1    LIG   0.0000
  30 C30         -3.1247     0.5453    -4.4636 C.3          1    LIG   0.0000
  31 C31         -1.8204     0.3842    -2.3121 C.ar         1    LIG   0.0000
  32 C32         -1.6007     0.7433    -0.9867 C.ar         1    LIG   0.0000
  33 C33          3.2440    -0.1283     1.0070 C.2          1    LIG   0.0000
  34 C34          2.8051    -1.5830     1.0160 C.3          1    LIG   0.0000
  35 H            5.2349     2.3205     0.9962 H            1    LIG   0.0000
  36 H            9.2067    -1.6856     2.4408 H            1    LIG   0.0000
  37 H            8.6610    -0.2191     2.9080 H            1    LIG   0.0000
  38 H            7.6535    -1.5043     2.9112 H            1    LIG   0.0000
  39 H            8.7876    -0.3242     0.5325 H            1    LIG   0.0000
  40 H            7.7801    -1.6094     0.5356 H            1    LIG   0.0000
  41 H            0.5000     0.1340     1.0054 H            1    LIG   0.0000
  42 H           -0.5659     2.8281     3.6210 H            1    LIG   0.0000
  43 H           -4.2099     3.2280     4.0994 H            1    LIG   0.0000
  44 H           -2.7879     3.5105     4.8508 H            1    LIG   0.0000
  45 H           -5.3035     1.0535     4.2494 H            1    LIG   0.0000
  46 H           -5.5619    -0.9672     5.5132 H            1    LIG   0.0000
  47 H           -3.1670    -2.1707     7.9704 H            1    LIG   0.0000
  48 H           -4.7893    -1.9974     7.9013 H            1    LIG   0.0000
  49 H           -4.0062    -2.8265     6.7326 H            1    LIG   0.0000
  50 H           -1.9558    -0.2458     7.4198 H            1    LIG   0.0000
  51 H           -1.6876     1.7756     6.1594 H            1    LIG   0.0000
  52 H           -4.1280     2.8758    -0.6295 H            1    LIG   0.0000
  53 H           -4.4962     2.2497    -2.9136 H            1    LIG   0.0000
  54 H           -2.4309    -0.1161    -4.7485 H            1    LIG   0.0000
  55 H           -4.0324     0.1352    -4.5519 H            1    LIG   0.0000
  56 H           -3.0683     1.3581    -5.0434 H            1    LIG   0.0000
  57 H           -1.2131    -0.2723    -2.7595 H            1    LIG   0.0000
  58 H           -0.8377     0.3479    -0.4753 H            1    LIG   0.0000
  59 H            3.6114    -2.1744     1.0197 H            1    LIG   0.0000
  60 H            2.2574    -1.7608     1.8336 H            1    LIG   0.0000
  61 H            2.2575    -1.7709     0.2006 H            1    LIG   0.0000
@<TRIPOS>BOND
   1        1        2 1
   2        2        3 1
   3        3        4 1
   4        4        5 2
   5        4        6 1
   6        6        7 1
   7        7        8 1
   8        8        9 2
   9        9       10 1
  10       10       11 am
  11       11       12 2
  12       11       13 1
  13       13       14 2
  14       14       15 1
  15       15       16 1
  16       16       17 1
  17       17       18 ar
  18       18       19 ar
  19       19       20 ar
  20       20       21 1
  21       20       22 ar
  22       22       23 ar
  23       23       17 ar
  24       15       24 1
  25       24       25 2
  26       25       13 1
  27       25       26 1
  28       26       27 ar
  29       27       28 ar
  30       28       29 ar
  31       29       30 1
  32       29       31 ar
  33       31       32 ar
  34       32       26 ar
  35        9       33 1
  36       33        6 2
  37       33       34 1
  38        7       35 1
  39        1       36 1
  40        1       37 1
  41        1       38 1
  42        2       39 1
  43        2       40 1
  44       10       41 1
  45       14       42 1
  46       16       43 1
  47       16       44 1
  48       18       45 1
  49       19       46 1
  50       21       47 1
  51       21       48 1
  52       21       49 1
  53       22       50 1
  54       23       51 1
  55       27       52 1
  56       28       53 1
  57       30       54 1
  58       30       55 1
  59       30       56 1
  60       31       57 1
  61       32       58 1
  62       34       59 1
  63       34       60 1
  64       34       61 1

@<TRIPOS>MOLECULE

  61   64
SMALL
USER_CHARGES
@<TRIPOS>ATOM
   1 C1           8.4197    -1.0686     2.4389 C.3          1    LIG   0.0000
   2 C2           8.0214    -0.7599     1.0048 C.3          1    LIG   0.0000
   3 O3           6.9038     0.1161     1.0021 O.3          1    LIG   0.0000
   4 C4           5.7305    -0.4665     1.0034 C.2          1    LIG   0.0000
   5 O5           5.6553    -1.6641     1.0066 O.2          1    LIG   0.0000
   6 C6           4.5227     0.3358     1.0008 C.2          1    LIG   0.0000
   7 N7           4.4544     1.6954     0.9972 N.pl3        1    LIG   0.0000
   8 N8           3.1847     2.0473     0.9950 N.2          1    LIG   0.0000
   9 C9           2.3993     1.0000     1.0000 C.2          1    LIG   0.0000
  10 N10          1.0000     1.0000     1.0000 N.am         1    LIG   0.0000
  11 C11          0.3150     2.1864     0.9926 C.2          1    LIG   0.0000
  12 O12          0.7944     3.1593     1.5061 O.2          1    LIG   0.0000
  13 C13         -0.9889     2.2666     0.3644 C.2          1    LIG   0.0000
  14 C14         -2.1894     2.0412     0.9660 C.2          1    LIG   0.0000
  15 N15         -3.1343     2.2263     0.0044 N.pl3        1    LIG   0.0000
  16 C16         -4.5822     2.0882     0.2146 C.3          1    LIG   0.0000
  17 C17         -5.0000     0.6538    -0.0642 C.ar         1    LIG   0.0000
  18 C18         -5.3835     0.2916    -1.3512 C.ar         1    LIG   0.0000
  19 C19         -5.7662    -1.0225    -1.6002 C.ar         1    LIG   0.0000
  20 C20         -5.7616    -1.9552    -0.5692 C.ar         1    LIG   0.0000
  21 C21         -6.1806    -3.3892    -0.8525 C.3          1    LIG   0.0000
  22 C22         -5.3773    -1.5833     0.7154 C.ar         1    LIG   0.0000
  23 C23         -4.9924    -0.2720     0.9740 C.ar         1    LIG   0.0000
  24 N24         -2.5522     2.5474    -1.1284 N.2          1    LIG   0.0000
  25 C25         -1.2485     2.5898    -0.9798 C.2          1    LIG   0.0000
  26 C26         -0.2717     2.9094    -2.0022 C.ar         1    LIG   0.0000
  27 C27         -0.5406     3.9281    -2.9104 C.ar         1    LIG   0.0000
  28 C28          0.3996     4.2309    -3.8899 C.ar         1    LIG   0.0000
  29 C29          1.5916     3.5174    -3.9536 C.ar         1    LIG   0.0000
  30 C30          2.6128     3.8544    -5.0267 C.3          1    LIG   0.0000
  31 C31          1.8530     2.5005    -3.0403 C.ar         1    LIG   0.0000
  32 C32          0.9187     2.1912    -2.0579 C.ar         1    LIG   0.0000
  33 C33          3.2440    -0.1283     1.0070 C.2          1    LIG   0.0000
  34 C34          2.8051    -1.5830     1.0160 C.3          1    LIG   0.0000
  35 H            5.2349     2.3205     0.9962 H            1    LIG   0.0000
  36 H            9.2067    -1.6856     2.4408 H            1    LIG   0.0000
  37 H            8.6610    -0.2191     2.9080 H            1    LIG   0.0000
  38 H            7.6535    -1.5043     2.9112 H            1    LIG   0.0000
  39 H            8.7876    -0.3242     0.5325 H            1    LIG   0.0000
  40 H            7.7801    -1.6094     0.5356 H            1    LIG   0.0000
  41 H            0.5000     0.1340     1.0054 H            1    LIG   0.0000
  42 H           -2.3452     1.7902     1.9214 H            1    LIG   0.0000
  43 H           -5.0692     2.7037    -0.4051 H            1    LIG   0.0000
  44 H           -4.8056     2.3225     1.1607 H            1    LIG   0.0000
  45 H           -5.3841     0.9674    -2.0883 H            1    LIG   0.0000
  46 H           -6.0447    -1.2962    -2.5208 H            1    LIG   0.0000
  47 H           -6.1214    -3.9262    -0.0110 H            1    LIG   0.0000
  48 H           -7.1219    -3.4009    -1.1899 H            1    LIG   0.0000
  49 H           -5.5741    -3.7835    -1.5430 H            1    LIG   0.0000
  50 H           -5.3779    -2.2589     1.4527 H            1    LIG   0.0000
  51 H           -4.7138     0.0017     1.8945 H            1    LIG   0.0000
  52 H           -1.4000     4.4369    -2.8598 H            1    LIG   0.0000
  53 H            0.2183     4.9615    -4.5481 H            1    LIG   0.0000
  54 H            3.4060     3.2528    -4.9328 H            1    LIG   0.0000
  55 H            2.2023     3.7263    -5.9295 H            1    LIG   0.0000
  56 H            2.9024     4.8061    -4.9243 H            1    LIG   0.0000
  57 H            2.7127     1.9923    -3.0905 H            1    LIG   0.0000
  58 H            1.1002     1.4610    -1.3992 H            1    LIG   0.0000
  59 H            3.6114    -2.1744     1.0197 H            1    LIG   0.0000
  60 H            2.2574    -1.7608     1.8336 H            1    LIG   0.0000
  61 H            2.2575    -1.7709     0.2006 H            1    LIG   0.0000
@<TRIPOS>BOND
   1        1        2 1
   2        2        3 1
   3        3        4 1
   4        4        5 2
   5        4        6 1
   6        6        7 1
   7        7        8 1
   8        8        9 2
   9        9       10 1
  10       10       11 am
  11       11       12 2
  12       11       13 1
  13       13       14 2
  14       14       15 1
  15       15       16 1
  16       16       17 1
  17       17       18 ar
  18       18       19 ar
  19       19       20 ar
  20       20       21 1
  21       20       22 ar
  22       22       23 ar
  23       23       17 ar
  24       15       24 1
  25       24       25 2
  26       25       13 1
  27       25       26 1
  28       26       27 ar
  29       27       28 ar
  30       28       29 ar
  31       29       30 1
  32       29       31 ar
  33       31       32 ar
  34       32       26 ar
  35        9       33 1
  36       33        6 2
  37       33       34 1
  38        7       35 1
  39        1       36 1
  40        1       37 1
  41        1       38 1
  42        2       39 1
  43        2       40 1
  44       10       41 1
  45       14       42 1
  46       16       43 1
  47       16       44 1
  48       18       45 1
  49       19       46 1
  50       21       47 1
  51       21       48 1
  52       21       49 1
  53       22       50 1
  54       23       51 1
  55       27       52 1
  56       28       53 1
  57       30       54 1
  58       30       55 1
  59       30       56 1
  60       31       57 1
  61       32       58 1
  62       34       59 1
  63       34       60 1
  64       34       61 1

@<TRIPOS>MOLECULE

  61   64
SMALL
USER_CHARGES
@<TRIPOS>ATOM
   1 C1           8.4197    -1.0686     2.4389 C.3          1    LIG   0.0000
   2 C2           8.0214    -0.7599     1.0048 C.3          1    LIG   0.0000
   3 O3           6.9038     0.1161     1.0021 O.3          1    LIG   0.0000
   4 C4           5.7305    -0.4665     1.0034 C.2          1    LIG   0.0000
   5 O5           5.6553    -1.6641     1.0066 O.2          1    LIG   0.0000
   6 C6           4.5227     0.3358     1.0008 C.2          1    LIG   0.0000
   7 N7           4.4544     1.6954     0.9972 N.pl3        1    LIG   0.0000
   8 N8           3.1847     2.0473     0.9950 N.2          1    LIG   0.0000
   9 C9           2.3993     1.0000     1.0000 C.2          1    LIG   0.0000
  10 N10          1.0000     1.0000     1.0000 N.am         1    LIG   0.0000
  11 C11          0.3150     2.1864     0.9926 C.2          1    LIG   0.0000
  12 O12          0.7944     3.1593     1.5061 O.2          1    LIG   0.0000
  13 C13         -0.9889     2.2666     0.3644 C.2          1    LIG   0.0000
  14 C14         -1.6501     1.2498    -0.2544 C.2          1    LIG   0.0000
  15 N15         -2.8258     1.7760    -0.6934 N.pl3        1    LIG   0.0000
  16 C16         -3.8603     1.0260    -1.4194 C.3          1    LIG   0.0000
  17 C17         -4.8352     0.4161    -0.4257 C.ar         1    LIG   0.0000
  18 C18         -4.5901    -0.8567     0.0787 C.ar         1    LIG   0.0000
  19 C19         -5.4866    -1.4103     0.9870 C.ar         1    LIG   0.0000
  20 C20         -6.6105    -0.6925     1.3802 C.ar         1    LIG   0.0000
  21 C21         -7.5833    -1.3066     2.3744 C.3          1    LIG   0.0000
  22 C22         -6.8479     0.5798     0.8693 C.ar         1    LIG   0.0000
  23 C23         -5.9570     1.1420    -0.0388 C.ar         1    LIG   0.0000
  24 N24         -2.8889     3.0464    -0.3660 N.2          1    LIG   0.0000
  25 C25         -1.8048     3.4093     0.2794 C.2          1    LIG   0.0000
  26 C26         -1.5108     4.7293     0.8020 C.ar         1    LIG   0.0000
  27 C27         -2.5243     5.4679     1.4036 C.ar         1    LIG   0.0000
  28 C28         -2.2375     6.7340     1.9033 C.ar         1    LIG   0.0000
  29 C29         -0.9496     7.2479     1.7972 C.ar         1    LIG   0.0000
  30 C30         -0.6451     8.6318     2.3454 C.3          1    LIG   0.0000
  31 C31          0.0586     6.5018     1.1948 C.ar         1    LIG   0.0000
  32 C32         -0.2193     5.2351     0.6925 C.ar         1    LIG   0.0000
  33 C33          3.2440    -0.1283     1.0070 C.2          1    LIG   0.0000
  34 C34          2.8051    -1.5830     1.0160 C.3          1    LIG   0.0000
  35 H            5.2349     2.3205     0.9962 H            1    LIG   0.0000
  36 H            9.2067    -1.6856     2.4408 H            1    LIG   0.0000
  37 H            8.6610    -0.2191     2.9080 H            1    LIG   0.0000
  38 H            7.6535    -1.5043     2.9112 H            1    LIG   0.0000
  39 H            8.7876    -0.3242     0.5325 H            1    LIG   0.0000
  40 H            7.7801    -1.6094     0.5356 H            1    LIG   0.0000
  41 H            0.5000     0.1340     1.0054 H            1    LIG   0.0000
  42 H           -1.3354     0.3070    -0.3640 H            1    LIG   0.0000
  43 H           -3.4309     0.2984    -1.9545 H            1    LIG   0.0000
  44 H           -4.3522     1.6445    -2.0322 H            1    LIG   0.0000
  45 H           -3.7795    -1.3674    -0.2079 H            1    LIG   0.0000
  46 H           -5.3227    -2.3248     1.3571 H            1    LIG   0.0000
  47 H           -8.3306    -0.6654     2.5491 H            1    LIG   0.0000
  48 H           -7.9538    -2.1555     1.9974 H            1    LIG   0.0000
  49 H           -7.1055    -1.5028     3.2307 H            1    LIG   0.0000
  50 H           -7.6591     1.0899     1.1551 H            1    LIG   0.0000
  51 H           -6.1207     2.0565    -0.4088 H            1    LIG   0.0000
  52 H           -3.4486     5.0930     1.4761 H            1    LIG   0.0000
  53 H           -2.9573     7.2746     2.3387 H            1    LIG   0.0000
  54 H            0.3188     8.8475     2.1893 H            1    LIG   0.0000
  55 H           -1.2174     9.3077     1.8809 H            1    LIG   0.0000
  56 H           -0.8364     8.6511     3.3267 H            1    LIG   0.0000
  57 H            0.9831     6.8763     1.1231 H            1    LIG   0.0000
  58 H            0.5007     4.6942     0.2578 H            1    LIG   0.0000
  59 H            3.6114    -2.1744     1.0197 H            1    LIG   0.0000
  60 H            2.2574    -1.7608     1.8336 H            1    LIG   0.0000
  61 H            2.2575    -1.7709     0.2006 H            1    LIG   0.0000
@<TRIPOS>BOND
   1        1        2 1
   2        2        3 1
   3        3        4 1
   4        4        5 2
   5        4        6 1
   6        6        7 1
   7        7        8 1
   8        8        9 2
   9        9       10 1
  10       10       11 am
  11       11       12 2
  12       11       13 1
  13       13       14 2
  14       14       15 1
  15       15       16 1
  16       16       17 1
  17       17       18 ar
  18       18       19 ar
  19       19       20 ar
  20       20       21 1
  21       20       22 ar
  22       22       23 ar
  23       23       17 ar
  24       15       24 1
  25       24       25 2
  26       25       13 1
  27       25       26 1
  28       26       27 ar
  29       27       28 ar
  30       28       29 ar
  31       29       30 1
  32       29       31 ar
  33       31       32 ar
  34       32       26 ar
  35        9       33 1
  36       33        6 2
  37       33       34 1
  38        7       35 1
  39        1       36 1
  40        1       37 1
  41        1       38 1
  42        2       39 1
  43        2       40 1
  44       10       41 1
  45       14       42 1
  46       16       43 1
  47       16       44 1
  48       18       45 1
  49       19       46 1
  50       21       47 1
  51       21       48 1
  52       21       49 1
  53       22       50 1
  54       23       51 1
  55       27       52 1
  56       28       53 1
  57       30       54 1
  58       30       55 1
  59       30       56 1
  60       31       57 1
  61       32       58 1
  62       34       59 1
  63       34       60 1
  64       34       61 1

@<TRIPOS>MOLECULE

  61   64
SMALL
USER_CHARGES
@<TRIPOS>ATOM
   1 C1           8.4197    -1.0686     2.4389 C.3          1    LIG   0.0000
   2 C2           8.0214    -0.7599     1.0048 C.3          1    LIG   0.0000
   3 O3           6.9038     0.1161     1.0021 O.3          1    LIG   0.0000
   4 C4           5.7305    -0.4665     1.0034 C.2          1    LIG   0.0000
   5 O5           5.6553    -1.6641     1.0066 O.2          1    LIG   0.0000
   6 C6           4.5227     0.3358     1.0008 C.2          1    LIG   0.0000
   7 N7           4.4544     1.6954     0.9972 N.pl3        1    LIG   0.0000
   8 N8           3.1847     2.0473     0.9950 N.2          1    LIG   0.0000
   9 C9           2.3993     1.0000     1.0000 C.2          1    LIG   0.0000
  10 N10          1.0000     1.0000     1.0000 N.am         1    LIG   0.0000
  11 C11          0.3150     2.1864     0.9926 C.2          1    LIG   0.0000
  12 O12          0.7944     3.1593     1.5061 O.2          1    LIG   0.0000
  13 C13         -0.9889     2.2666     0.3644 C.2          1    LIG   0.0000
  14 C14         -1.6501     1.2498    -0.2544 C.2          1    LIG   0.0000
  15 N15         -2.8258     1.7760    -0.6934 N.pl3        1    LIG   0.0000
  16 C16         -3.8603     1.0260    -1.4194 C.3          1    LIG   0.0000
  17 C17         -3.5987     1.1188    -2.9136 C.ar         1    LIG   0.0000
  18 C18         -4.1645     2.1590    -3.6432 C.ar         1    LIG   0.0000
  19 C19         -3.9226     2.2381    -5.0108 C.ar         1    LIG   0.0000
  20 C20         -3.1233     1.2850    -5.6318 C.ar         1    LIG   0.0000
  21 C21         -2.8643     1.3815    -7.1270 C.3          1    LIG   0.0000
  22 C22         -2.5623     0.2472    -4.8939 C.ar         1    LIG   0.0000
  23 C23         -2.7979     0.1601    -3.5259 C.ar         1    LIG   0.0000
  24 N24         -2.8889     3.0464    -0.3660 N.2          1    LIG   0.0000
  25 C25         -1.8048     3.4093     0.2794 C.2          1    LIG   0.0000
  26 C26         -1.5108     4.7293     0.8020 C.ar         1    LIG   0.0000
  27 C27         -2.5243     5.4679     1.4036 C.ar         1    LIG   0.0000
  28 C28         -2.2375     6.7340     1.9033 C.ar         1    LIG   0.0000
  29 C29         -0.9496     7.2479     1.7972 C.ar         1    LIG   0.0000
  30 C30         -0.6451     8.6318     2.3454 C.3          1    LIG   0.0000
  31 C31          0.0586     6.5018     1.1948 C.ar         1    LIG   0.0000
  32 C32         -0.2193     5.2351     0.6925 C.ar         1    LIG   0.0000
  33 C33          3.2440    -0.1283     1.0070 C.2          1    LIG   0.0000
  34 C34          2.8051    -1.5830     1.0160 C.3          1    LIG   0.0000
  35 H            5.2349     2.3205     0.9962 H            1    LIG   0.0000
  36 H            9.2067    -1.6856     2.4408 H            1    LIG   0.0000
  37 H            8.6610    -0.2191     2.9080 H            1    LIG   0.0000
  38 H            7.6535    -1.5043     2.9112 H            1    LIG   0.0000
  39 H            8.7876    -0.3242     0.5325 H            1    LIG   0.0000
  40 H            7.7801    -1.6094     0.5356 H            1    LIG   0.0000
  41 H            0.5000     0.1340     1.0054 H            1    LIG   0.0000
  42 H           -1.3354     0.3070    -0.3640 H            1    LIG   0.0000
  43 H           -4.7590     1.4133    -1.2137 H            1    LIG   0.0000
  44 H           -3.8377     0.0672    -1.1360 H            1    LIG   0.0000
  45 H           -4.7380     2.8416    -3.1902 H            1    LIG   0.0000
  46 H           -4.3236     2.9806    -5.5474 H            1    LIG   0.0000
  47 H           -2.2755     0.6255    -7.4128 H            1    LIG   0.0000
  48 H           -3.7332     1.3319    -7.6197 H            1    LIG   0.0000
  49 H           -2.4141     2.2506    -7.3319 H            1    LIG   0.0000
  50 H           -1.9898    -0.4360    -5.3472 H            1    LIG   0.0000
  51 H           -2.3968    -0.5823    -2.9893 H            1    LIG   0.0000
  52 H           -3.4486     5.0930     1.4761 H            1    LIG   0.0000
  53 H           -2.9573     7.2746     2.3387 H            1    LIG   0.0000
  54 H            0.3188     8.8475     2.1893 H            1    LIG   0.0000
  55 H           -1.2174     9.3077     1.8809 H            1    LIG   0.0000
  56 H           -0.8364     8.6511     3.3267 H            1    LIG   0.0000
  57 H            0.9831     6.8763     1.1231 H            1    LIG   0.0000
  58 H            0.5007     4.6942     0.2578 H            1    LIG   0.0000
  59 H            3.6114    -2.1744     1.0197 H            1    LIG   0.0000
  60 H            2.2574    -1.7608     1.8336 H            1    LIG   0.0000
  61 H            2.2575    -1.7709     0.2006 H            1    LIG   0.0000
@<TRIPOS>BOND
   1        1        2 1
   2        2        3 1
   3        3        4 1
   4        4        5 2
   5        4        6 1
   6        6        7 1
   7        7        8 1
   8        8        9 2
   9        9       10 1
  10       10       11 am
  11       11       12 2
  12       11       13 1
  13       13       14 2
  14       14       15 1
  15       15       16 1
  16       16       17 1
  17       17       18 ar
  18       18       19 ar
  19       19       20 ar
  20       20       21 1
  21       20       22 ar
  22       22       23 ar
  23       23       17 ar
  24       15       24 1
  25       24       25 2
  26       25       13 1
  27       25       26 1
  28       26       27 ar
  29       27       28 ar
  30       28       29 ar
  31       29       30 1
  32       29       31 ar
  33       31       32 ar
  34       32       26 ar
  35        9       33 1
  36       33        6 2
  37       33       34 1
  38        7       35 1
  39        1       36 1
  40        1       37 1
  41        1       38 1
  42        2       39 1
  43        2       40 1
  44       10       41 1
  45       14       42 1
  46       16       43 1
  47       16       44 1
  48       18       45 1
  49       19       46 1
  50       21       47 1
  51       21       48 1
  52       21       49 1
  53       22       50 1
  54       23       51 1
  55       27       52 1
  56       28       53 1
  57       30       54 1
  58       30       55 1
  59       30       56 1
  60       31       57 1
  61       32       58 1
  62       34       59 1
  63       34       60 1
  64       34       61 1

