@<TRIPOS>MOLECULE
*****
 61 64 0 0 0
SMALL
USER_CHARGES

@<TRIPOS>ATOM
      1 C1          8.4197   -1.0686    2.4389 C.3     1  LIG1        0.0000
      2 C2          8.0214   -0.7599    1.0048 C.3     1  LIG1        0.0000
      3 O3          6.9038    0.1161    1.0021 O.3     1  LIG1        0.0000
      4 C4          5.7305   -0.4665    1.0034 C.2     1  LIG1        0.0000
      5 O5          5.6553   -1.6641    1.0066 O.2     1  LIG1        0.0000
      6 C6          4.5227    0.3358    1.0008 C.2     1  LIG1        0.0000
      7 N7          4.4544    1.6954    0.9972 N.pl3   1  LIG1        0.0000
      8 N8          3.1847    2.0473    0.9950 N.2     1  LIG1        0.0000
      9 C9          2.3993    1.0000    1.0000 C.2     1  LIG1        0.0000
     10 N10         1.0000    1.0000    1.0000 N.am    1  LIG1        0.0000
     11 C11         0.3150    2.1864    0.9926 C.2     1  LIG1        0.0000
     12 O12         0.7944    3.1593    1.5061 O.2     1  LIG1        0.0000
     13 C13        -0.9889    2.2666    0.3644 C.2     1  LIG1        0.0000
     14 C14        -1.6501    1.2498   -0.2544 C.2     1  LIG1        0.0000
     15 N15        -2.8258    1.7760   -0.6934 N.pl3   1  LIG1        0.0000
     16 C16        -3.8603    1.0260   -1.4194 C.3     1  LIG1        0.0000
     17 C17        -4.8352    0.4161   -0.4257 C.3     1  LIG1        0.0000
     18 C18        -4.5901   -0.8567    0.0787 C.3     1  LIG1        0.0000
     19 C19        -5.4866   -1.4103    0.9870 C.3     1  LIG1        0.0000
     20 C20        -6.6105   -0.6925    1.3802 C.3     1  LIG1        0.0000
     21 C21        -7.5833   -1.3066    2.3744 C.3     1  LIG1        0.0000
     22 C22        -6.8479    0.5798    0.8693 C.3     1  LIG1        0.0000
     23 C23        -5.9570    1.1420   -0.0388 C.3     1  LIG1        0.0000
     24 N24        -2.8889    3.0464   -0.3660 N.2     1  LIG1        0.0000
     25 C25        -1.8048    3.4093    0.2794 C.2     1  LIG1        0.0000
     26 C26        -1.5108    4.7293    0.8020 C.3     1  LIG1        0.0000
     27 C27        -2.5243    5.4679    1.4036 C.3     1  LIG1        0.0000
     28 C28        -2.2375    6.7340    1.9033 C.3     1  LIG1        0.0000
     29 C29        -0.9496    7.2479    1.7972 C.3     1  LIG1        0.0000
     30 C30        -0.6451    8.6318    2.3454 C.3     1  LIG1        0.0000
     31 C31         0.0586    6.5018    1.1948 C.3     1  LIG1        0.0000
     32 C32        -0.2193    5.2351    0.6925 C.3     1  LIG1        0.0000
     33 C33         3.2440   -0.1283    1.0070 C.2     1  LIG1        0.0000
     34 C34         2.8051   -1.5830    1.0160 C.3     1  LIG1        0.0000
     35 H           5.2349    2.3205    0.9962 H       1  LIG1        0.0000
     36 H           9.2067   -1.6856    2.4408 H       1  LIG1        0.0000
     37 H           8.6610   -0.2191    2.9080 H       1  LIG1        0.0000
     38 H           7.6535   -1.5043    2.9112 H       1  LIG1        0.0000
     39 H           8.7876   -0.3242    0.5325 H       1  LIG1        0.0000
     40 H           7.7801   -1.6094    0.5356 H       1  LIG1        0.0000
     41 H           0.5000    0.1340    1.0054 H       1  LIG1        0.0000
     42 H          -1.3354    0.3070   -0.3640 H       1  LIG1        0.0000
     43 H          -3.4309    0.2984   -1.9545 H       1  LIG1        0.0000
     44 H          -4.3522    1.6445   -2.0322 H       1  LIG1        0.0000
     45 H          -3.7795   -1.3674   -0.2079 H       1  LIG1        0.0000
     46 H          -5.3227   -2.3248    1.3571 H       1  LIG1        0.0000
     47 H          -8.3306   -0.6654    2.5491 H       1  LIG1        0.0000
     48 H          -7.9538   -2.1555    1.9974 H       1  LIG1        0.0000
     49 H          -7.1055   -1.5028    3.2307 H       1  LIG1        0.0000
     50 H          -7.6591    1.0899    1.1551 H       1  LIG1        0.0000
     51 H          -6.1207    2.0565   -0.4088 H       1  LIG1        0.0000
     52 H          -3.4486    5.0930    1.4761 H       1  LIG1        0.0000
     53 H          -2.9573    7.2746    2.3387 H       1  LIG1        0.0000
     54 H           0.3188    8.8475    2.1893 H       1  LIG1        0.0000
     55 H          -1.2174    9.3077    1.8809 H       1  LIG1        0.0000
     56 H          -0.8364    8.6511    3.3267 H       1  LIG1        0.0000
     57 H           0.9831    6.8763    1.1231 H       1  LIG1        0.0000
     58 H           0.5007    4.6942    0.2578 H       1  LIG1        0.0000
     59 H           3.6114   -2.1744    1.0197 H       1  LIG1        0.0000
     60 H           2.2574   -1.7608    1.8336 H       1  LIG1        0.0000
     61 H           2.2575   -1.7709    0.2006 H       1  LIG1        0.0000
@<TRIPOS>BOND
     1     1     2    1
     2     2     3    1
     3     3     4    1
     4     4     5    2
     5     4     6    1
     6     6     7    1
     7     7     8    1
     8     8     9    2
     9     9    10    1
    10    10    11   am
    11    11    12    2
    12    11    13    1
    13    13    14    2
    14    14    15    1
    15    15    16    1
    16    16    17    1
    17    17    18   ar
    18    18    19   ar
    19    19    20   ar
    20    20    21    1
    21    20    22   ar
    22    22    23   ar
    23    23    17   ar
    24    15    24    1
    25    24    25    2
    26    25    13    1
    27    25    26    1
    28    26    27   ar
    29    27    28   ar
    30    28    29   ar
    31    29    30    1
    32    29    31   ar
    33    31    32   ar
    34    32    26   ar
    35     9    33    1
    36    33     6    2
    37    33    34    1
    38     7    35    1
    39     1    36    1
    40     1    37    1
    41     1    38    1
    42     2    39    1
    43     2    40    1
    44    10    41    1
    45    14    42    1
    46    16    43    1
    47    16    44    1
    48    18    45    1
    49    19    46    1
    50    21    47    1
    51    21    48    1
    52    21    49    1
    53    22    50    1
    54    23    51    1
    55    27    52    1
    56    28    53    1
    57    30    54    1
    58    30    55    1
    59    30    56    1
    60    31    57    1
    61    32    58    1
    62    34    59    1
    63    34    60    1
    64    34    61    1
