@<TRIPOS>MOLECULE
*****
 61 64 0 0 0
SMALL
USER_CHARGES

@<TRIPOS>ATOM
      1 C1          8.4197   -1.0686    2.4389 C.3     1  LIG1        0.0000
      2 C2          8.0214   -0.7599    1.0048 C.3     1  LIG1        0.0000
      3 O3          6.9038    0.1161    1.0021 O.3     1  LIG1        0.0000
      4 C4          5.7305   -0.4665    1.0034 C.2     1  LIG1        0.0000
      5 O5          5.6553   -1.6641    1.0066 O.2     1  LIG1        0.0000
      6 C6          4.5227    0.3358    1.0008 C.2     1  LIG1        0.0000
      7 N7          4.4544    1.6954    0.9972 N.pl3   1  LIG1        0.0000
      8 N8          3.1847    2.0473    0.9950 N.2     1  LIG1        0.0000
      9 C9          2.3993    1.0000    1.0000 C.2     1  LIG1        0.0000
     10 N10         1.0000    1.0000    1.0000 N.am    1  LIG1        0.0000
     11 C11         0.3150    2.1864    0.9926 C.2     1  LIG1        0.0000
     12 O12         0.7944    3.1528    0.4669 O.2     1  LIG1        0.0000
     13 C13        -0.9889    2.2744    1.6197 C.2     1  LIG1        0.0000
     14 C14        -2.1896    2.0450    1.0201 C.2     1  LIG1        0.0000
     15 N15        -3.1346    2.2432    1.9790 N.pl3   1  LIG1        0.0000
     16 C16        -4.5823    2.0995    1.7714 C.3     1  LIG1        0.0000
     17 C17        -4.9964    0.6670    2.0650 C.3     1  LIG1        0.0000
     18 C18        -4.9872   -0.2711    1.0381 C.3     1  LIG1        0.0000
     19 C19        -5.3686   -1.5806    1.3125 C.3     1  LIG1        0.0000
     20 C20        -5.7518   -1.9378    2.6002 C.3     1  LIG1        0.0000
     21 C21        -6.1657   -3.3721    2.8895 C.3     1  LIG1        0.0000
     22 C22        -5.7589   -0.9921    3.6209 C.3     1  LIG1        0.0000
     23 C23        -5.3787    0.3194    3.3565 C.3     1  LIG1        0.0000
     24 N24        -2.5524    2.5771    3.1081 N.2     1  LIG1        0.0000
     25 C25        -1.2485    2.6144    2.9598 C.2     1  LIG1        0.0000
     26 C26        -0.2713    2.9404    3.9798 C.3     1  LIG1        0.0000
     27 C27        -0.4497    2.4647    5.2747 C.3     1  LIG1        0.0000
     28 C28         0.4904    2.7804    6.2501 C.3     1  LIG1        0.0000
     29 C29         1.5925    3.5642    5.9257 C.3     1  LIG1        0.0000
     30 C30         2.6143    3.9045    6.9972 C.3     1  LIG1        0.0000
     31 C31         1.7638    4.0350    4.6275 C.3     1  LIG1        0.0000
     32 C32         0.8288    3.7242    3.6462 C.3     1  LIG1        0.0000
     33 C33         3.2440   -0.1283    1.0070 C.2     1  LIG1        0.0000
     34 C34         2.8051   -1.5830    1.0160 C.3     1  LIG1        0.0000
     35 H           5.2349    2.3205    0.9962 H       1  LIG1        0.0000
     36 H           9.2067   -1.6856    2.4408 H       1  LIG1        0.0000
     37 H           8.6610   -0.2191    2.9080 H       1  LIG1        0.0000
     38 H           7.6535   -1.5043    2.9112 H       1  LIG1        0.0000
     39 H           8.7876   -0.3242    0.5325 H       1  LIG1        0.0000
     40 H           7.7801   -1.6094    0.5356 H       1  LIG1        0.0000
     41 H           0.5000    0.1340    1.0054 H       1  LIG1        0.0000
     42 H          -2.3455    1.7838    0.0675 H       1  LIG1        0.0000
     43 H          -4.8069    2.3237    0.8231 H       1  LIG1        0.0000
     44 H          -5.0704    2.7200    2.3852 H       1  LIG1        0.0000
     45 H          -4.7099   -0.0076    0.1142 H       1  LIG1        0.0000
     46 H          -5.3670   -2.2649    0.5833 H       1  LIG1        0.0000
     47 H          -6.4096   -3.4603    3.8553 H       1  LIG1        0.0000
     48 H          -6.9542   -3.6122    2.3232 H       1  LIG1        0.0000
     49 H          -5.4054   -3.9871    2.6802 H       1  LIG1        0.0000
     50 H          -6.0373   -1.2555    4.5446 H       1  LIG1        0.0000
     51 H          -5.3800    1.0037    4.0857 H       1  LIG1        0.0000
     52 H          -1.2447    1.9022    5.5018 H       1  LIG1        0.0000
     53 H           0.3738    2.4439    7.1845 H       1  LIG1        0.0000
     54 H           3.3373    4.4703    6.6007 H       1  LIG1        0.0000
     55 H           2.1666    4.4062    7.7375 H       1  LIG1        0.0000
     56 H           3.0117    3.0611    7.3588 H       1  LIG1        0.0000
     57 H           2.5592    4.5968    4.4002 H       1  LIG1        0.0000
     58 H           0.9457    4.0602    2.7116 H       1  LIG1        0.0000
     59 H           3.6114   -2.1744    1.0197 H       1  LIG1        0.0000
     60 H           2.2574   -1.7608    1.8336 H       1  LIG1        0.0000
     61 H           2.2575   -1.7709    0.2006 H       1  LIG1        0.0000
@<TRIPOS>BOND
     1     1     2    1
     2     2     3    1
     3     3     4    1
     4     4     5    2
     5     4     6    1
     6     6     7    1
     7     7     8    1
     8     8     9    2
     9     9    10    1
    10    10    11   am
    11    11    12    2
    12    11    13    1
    13    13    14    2
    14    14    15    1
    15    15    16    1
    16    16    17    1
    17    17    18   ar
    18    18    19   ar
    19    19    20   ar
    20    20    21    1
    21    20    22   ar
    22    22    23   ar
    23    23    17   ar
    24    15    24    1
    25    24    25    2
    26    25    13    1
    27    25    26    1
    28    26    27   ar
    29    27    28   ar
    30    28    29   ar
    31    29    30    1
    32    29    31   ar
    33    31    32   ar
    34    32    26   ar
    35     9    33    1
    36    33     6    2
    37    33    34    1
    38     7    35    1
    39     1    36    1
    40     1    37    1
    41     1    38    1
    42     2    39    1
    43     2    40    1
    44    10    41    1
    45    14    42    1
    46    16    43    1
    47    16    44    1
    48    18    45    1
    49    19    46    1
    50    21    47    1
    51    21    48    1
    52    21    49    1
    53    22    50    1
    54    23    51    1
    55    27    52    1
    56    28    53    1
    57    30    54    1
    58    30    55    1
    59    30    56    1
    60    31    57    1
    61    32    58    1
    62    34    59    1
    63    34    60    1
    64    34    61    1
