@<TRIPOS>MOLECULE
*****
 61 64 0 0 0
SMALL
USER_CHARGES

@<TRIPOS>ATOM
      1 C1          8.4205   -1.0764   -0.4273 C.3     1  LIG1        0.0000
      2 C2          8.0214   -0.7599    1.0048 C.3     1  LIG1        0.0000
      3 O3          6.9038    0.1161    1.0021 O.3     1  LIG1        0.0000
      4 C4          5.7305   -0.4665    1.0034 C.2     1  LIG1        0.0000
      5 O5          5.6553   -1.6641    1.0066 O.2     1  LIG1        0.0000
      6 C6          4.5227    0.3358    1.0008 C.2     1  LIG1        0.0000
      7 N7          4.4544    1.6954    0.9972 N.pl3   1  LIG1        0.0000
      8 N8          3.1847    2.0473    0.9950 N.2     1  LIG1        0.0000
      9 C9          2.3993    1.0000    1.0000 C.2     1  LIG1        0.0000
     10 N10         1.0000    1.0000    1.0000 N.am    1  LIG1        0.0000
     11 C11         0.3150    2.1864    0.9926 C.2     1  LIG1        0.0000
     12 O12         0.7944    3.1593    1.5061 O.2     1  LIG1        0.0000
     13 C13        -0.9889    2.2666    0.3644 C.2     1  LIG1        0.0000
     14 C14        -2.1894    2.0412    0.9660 C.2     1  LIG1        0.0000
     15 N15        -3.1343    2.2263    0.0044 N.pl3   1  LIG1        0.0000
     16 C16        -4.5822    2.0882    0.2146 C.3     1  LIG1        0.0000
     17 C17        -5.1627    3.4273    0.6383 C.3     1  LIG1        0.0000
     18 C18        -5.2280    3.7467    1.9904 C.3     1  LIG1        0.0000
     19 C19        -5.7616    4.9734    2.3724 C.3     1  LIG1        0.0000
     20 C20        -6.2205    5.8628    1.4074 C.3     1  LIG1        0.0000
     21 C21        -6.8007    7.2015    1.8358 C.3     1  LIG1        0.0000
     22 C22        -6.1519    5.5341    0.0571 C.3     1  LIG1        0.0000
     23 C23        -5.6196    4.3103   -0.3347 C.3     1  LIG1        0.0000
     24 N24        -2.5522    2.5474   -1.1284 N.2     1  LIG1        0.0000
     25 C25        -1.2485    2.5898   -0.9798 C.2     1  LIG1        0.0000
     26 C26        -0.2717    2.9094   -2.0022 C.3     1  LIG1        0.0000
     27 C27        -0.5406    3.9281   -2.9104 C.3     1  LIG1        0.0000
     28 C28         0.3996    4.2309   -3.8899 C.3     1  LIG1        0.0000
     29 C29         1.5916    3.5174   -3.9536 C.3     1  LIG1        0.0000
     30 C30         2.6128    3.8544   -5.0267 C.3     1  LIG1        0.0000
     31 C31         1.8530    2.5005   -3.0403 C.3     1  LIG1        0.0000
     32 C32         0.9187    2.1912   -2.0579 C.3     1  LIG1        0.0000
     33 C33         3.2440   -0.1283    1.0070 C.2     1  LIG1        0.0000
     34 C34         2.8051   -1.5830    1.0160 C.3     1  LIG1        0.0000
     35 H           5.2349    2.3205    0.9962 H       1  LIG1        0.0000
     36 H           9.2076   -1.6933   -0.4254 H       1  LIG1        0.0000
     37 H           7.6546   -1.5146   -0.8977 H       1  LIG1        0.0000
     38 H           8.6621   -0.2294   -0.9009 H       1  LIG1        0.0000
     39 H           7.7798   -1.6069    1.4785 H       1  LIG1        0.0000
     40 H           8.7873   -0.3217    1.4753 H       1  LIG1        0.0000
     41 H           0.5000    0.1340    1.0054 H       1  LIG1        0.0000
     42 H          -2.3452    1.7902    1.9214 H       1  LIG1        0.0000
     43 H          -4.7521    1.4101    0.9296 H       1  LIG1        0.0000
     44 H          -5.0157    1.7912   -0.6362 H       1  LIG1        0.0000
     45 H          -4.8957    3.1026    2.6794 H       1  LIG1        0.0000
     46 H          -5.8150    5.2155    3.3412 H       1  LIG1        0.0000
     47 H          -7.0816    7.7173    1.0265 H       1  LIG1        0.0000
     48 H          -7.5940    7.0477    2.4250 H       1  LIG1        0.0000
     49 H          -6.1082    7.7197    2.3376 H       1  LIG1        0.0000
     50 H          -6.4854    6.1778   -0.6318 H       1  LIG1        0.0000
     51 H          -5.5660    4.0683   -1.3035 H       1  LIG1        0.0000
     52 H          -1.4000    4.4369   -2.8598 H       1  LIG1        0.0000
     53 H           0.2183    4.9615   -4.5481 H       1  LIG1        0.0000
     54 H           3.4060    3.2528   -4.9328 H       1  LIG1        0.0000
     55 H           2.2023    3.7263   -5.9295 H       1  LIG1        0.0000
     56 H           2.9024    4.8061   -4.9243 H       1  LIG1        0.0000
     57 H           2.7127    1.9923   -3.0905 H       1  LIG1        0.0000
     58 H           1.1002    1.4610   -1.3992 H       1  LIG1        0.0000
     59 H           3.6114   -2.1744    1.0197 H       1  LIG1        0.0000
     60 H           2.2574   -1.7608    1.8336 H       1  LIG1        0.0000
     61 H           2.2575   -1.7709    0.2006 H       1  LIG1        0.0000
@<TRIPOS>BOND
     1     1     2    1
     2     2     3    1
     3     3     4    1
     4     4     5    2
     5     4     6    1
     6     6     7    1
     7     7     8    1
     8     8     9    2
     9     9    10    1
    10    10    11   am
    11    11    12    2
    12    11    13    1
    13    13    14    2
    14    14    15    1
    15    15    16    1
    16    16    17    1
    17    17    18   ar
    18    18    19   ar
    19    19    20   ar
    20    20    21    1
    21    20    22   ar
    22    22    23   ar
    23    23    17   ar
    24    15    24    1
    25    24    25    2
    26    25    13    1
    27    25    26    1
    28    26    27   ar
    29    27    28   ar
    30    28    29   ar
    31    29    30    1
    32    29    31   ar
    33    31    32   ar
    34    32    26   ar
    35     9    33    1
    36    33     6    2
    37    33    34    1
    38     7    35    1
    39     1    36    1
    40     1    37    1
    41     1    38    1
    42     2    39    1
    43     2    40    1
    44    10    41    1
    45    14    42    1
    46    16    43    1
    47    16    44    1
    48    18    45    1
    49    19    46    1
    50    21    47    1
    51    21    48    1
    52    21    49    1
    53    22    50    1
    54    23    51    1
    55    27    52    1
    56    28    53    1
    57    30    54    1
    58    30    55    1
    59    30    56    1
    60    31    57    1
    61    32    58    1
    62    34    59    1
    63    34    60    1
    64    34    61    1
