@<TRIPOS>MOLECULE
*****
 61 64 0 0 0
SMALL
USER_CHARGES

@<TRIPOS>ATOM
      1 C1          6.6352   -3.9630    1.0131 C.3     1  LIG1        0.0000
      2 C2          6.8892   -2.4643    1.0091 C.3     1  LIG1        0.0000
      3 O3          5.6484   -1.7739    1.0069 O.3     1  LIG1        0.0000
      4 C4          5.7305   -0.4665    1.0034 C.2     1  LIG1        0.0000
      5 O5          6.8053    0.0672    1.0022 O.2     1  LIG1        0.0000
      6 C6          4.5227    0.3358    1.0008 C.2     1  LIG1        0.0000
      7 N7          4.4544    1.6954    0.9972 N.pl3   1  LIG1        0.0000
      8 N8          3.1847    2.0473    0.9950 N.2     1  LIG1        0.0000
      9 C9          2.3993    1.0000    1.0000 C.2     1  LIG1        0.0000
     10 N10         1.0000    1.0000    1.0000 N.am    1  LIG1        0.0000
     11 C11         0.3150    2.1864    0.9926 C.2     1  LIG1        0.0000
     12 O12         0.9150    3.2256    0.9861 O.2     1  LIG1        0.0000
     13 C13        -1.1346    2.1864    0.9926 C.2     1  LIG1        0.0000
     14 C14        -1.9412    2.1914    2.0895 C.2     1  LIG1        0.0000
     15 N15        -3.2182    2.1880    1.6191 N.pl3   1  LIG1        0.0000
     16 C16        -4.4219    2.1948    2.4622 C.3     1  LIG1        0.0000
     17 C17        -4.8344    3.6300    2.7446 C.3     1  LIG1        0.0000
     18 C18        -4.3249    4.2798    3.8638 C.3     1  LIG1        0.0000
     19 C19        -4.7072    5.5931    4.1180 C.3     1  LIG1        0.0000
     20 C20        -5.5874    6.2399    3.2580 C.3     1  LIG1        0.0000
     21 C21        -5.9977    7.6758    3.5445 C.3     1  LIG1        0.0000
     22 C22        -6.0927    5.5813    2.1412 C.3     1  LIG1        0.0000
     23 C23        -5.7159    4.2685    1.8784 C.3     1  LIG1        0.0000
     24 N24        -3.2033    2.1805    0.3057 N.2     1  LIG1        0.0000
     25 C25        -1.9685    2.1794   -0.1402 C.2     1  LIG1        0.0000
     26 C26        -1.5506    2.1739   -1.5284 C.3     1  LIG1        0.0000
     27 C27        -2.2415    1.3912   -2.4475 C.3     1  LIG1        0.0000
     28 C28        -1.8366    1.3889   -3.7783 C.3     1  LIG1        0.0000
     29 C29        -0.7517    2.1627   -4.1762 C.3     1  LIG1        0.0000
     30 C30        -0.3160    2.1542   -5.6316 C.3     1  LIG1        0.0000
     31 C31        -0.0668    2.9438   -3.2503 C.3     1  LIG1        0.0000
     32 C32        -0.4648    2.9519   -1.9179 C.3     1  LIG1        0.0000
     33 C33         3.2440   -0.1283    1.0070 C.2     1  LIG1        0.0000
     34 C34         2.8051   -1.5830    1.0160 C.3     1  LIG1        0.0000
     35 H           5.2349    2.3205    0.9962 H       1  LIG1        0.0000
     36 H           7.5090   -4.4492    1.0146 H       1  LIG1        0.0000
     37 H           6.1145   -4.2106    1.8301 H       1  LIG1        0.0000
     38 H           6.1149   -4.2150    0.1971 H       1  LIG1        0.0000
     39 H           7.4095   -2.2123    1.8251 H       1  LIG1        0.0000
     40 H           7.4100   -2.2167    0.1921 H       1  LIG1        0.0000
     41 H           0.5000    0.1340    1.0054 H       1  LIG1        0.0000
     42 H          -1.6535    2.1966    3.0472 H       1  LIG1        0.0000
     43 H          -4.2273    1.7280    3.3249 H       1  LIG1        0.0000
     44 H          -5.1641    1.7219    1.9873 H       1  LIG1        0.0000
     45 H          -3.6918    3.8089    4.4781 H       1  LIG1        0.0000
     46 H          -4.3487    6.0718    4.9195 H       1  LIG1        0.0000
     47 H          -6.6296    7.9896    2.8358 H       1  LIG1        0.0000
     48 H          -6.4474    7.7223    4.4364 H       1  LIG1        0.0000
     49 H          -5.1859    8.2597    3.5496 H       1  LIG1        0.0000
     50 H          -6.7268    6.0519    1.5277 H       1  LIG1        0.0000
     51 H          -6.0742    3.7897    1.0769 H       1  LIG1        0.0000
     52 H          -3.0204    0.8364   -2.1549 H       1  LIG1        0.0000
     53 H          -2.3256    0.8310   -4.4488 H       1  LIG1        0.0000
     54 H           0.4720    2.7589   -5.7472 H       1  LIG1        0.0000
     55 H          -0.0643    1.2240   -5.8988 H       1  LIG1        0.0000
     56 H          -1.0688    2.4740   -6.2069 H       1  LIG1        0.0000
     57 H           0.7115    3.4992   -3.5431 H       1  LIG1        0.0000
     58 H           0.0237    3.5104   -1.2475 H       1  LIG1        0.0000
     59 H           3.6114   -2.1744    1.0197 H       1  LIG1        0.0000
     60 H           2.2574   -1.7608    1.8336 H       1  LIG1        0.0000
     61 H           2.2575   -1.7709    0.2006 H       1  LIG1        0.0000
@<TRIPOS>BOND
     1     1     2    1
     2     2     3    1
     3     3     4    1
     4     4     5    2
     5     4     6    1
     6     6     7    1
     7     7     8    1
     8     8     9    2
     9     9    10    1
    10    10    11   am
    11    11    12    2
    12    11    13    1
    13    13    14    2
    14    14    15    1
    15    15    16    1
    16    16    17    1
    17    17    18   ar
    18    18    19   ar
    19    19    20   ar
    20    20    21    1
    21    20    22   ar
    22    22    23   ar
    23    23    17   ar
    24    15    24    1
    25    24    25    2
    26    25    13    1
    27    25    26    1
    28    26    27   ar
    29    27    28   ar
    30    28    29   ar
    31    29    30    1
    32    29    31   ar
    33    31    32   ar
    34    32    26   ar
    35     9    33    1
    36    33     6    2
    37    33    34    1
    38     7    35    1
    39     1    36    1
    40     1    37    1
    41     1    38    1
    42     2    39    1
    43     2    40    1
    44    10    41    1
    45    14    42    1
    46    16    43    1
    47    16    44    1
    48    18    45    1
    49    19    46    1
    50    21    47    1
    51    21    48    1
    52    21    49    1
    53    22    50    1
    54    23    51    1
    55    27    52    1
    56    28    53    1
    57    30    54    1
    58    30    55    1
    59    30    56    1
    60    31    57    1
    61    32    58    1
    62    34    59    1
    63    34    60    1
    64    34    61    1
