@<TRIPOS>MOLECULE

  33   34
SMALL
USER_CHARGES
@<TRIPOS>ATOM
   1 C1          -1.1330    -3.8572     0.4895 C.3          1    LIG   0.0000
   2 C2          -0.7279    -2.7305    -0.4510 C.2          1    LIG   0.0000
   3 C3          -0.6736    -2.7683    -1.8057 C.2          1    LIG   0.0000
   4 C4          -1.0015    -3.9815    -2.6582 C.3          1    LIG   0.0000
   5 O5          -2.3831    -3.9702    -2.9860 O.3          1    LIG   0.0000
   6 O6          -0.2921    -1.5988    -2.2698 O.2          1    LIG   0.0000
   7 C7          -0.0709    -0.7605    -1.2741 C.2          1    LIG   0.0000
   8 C8          -0.3534    -1.4171    -0.1171 C.2          1    LIG   0.0000
   9 C9          -0.2463    -0.7405     1.2424 C.3          1    LIG   0.0000
  10 O10          0.3572    -1.5931     2.2013 O.3          1    LIG   0.0000
  11 C11          0.5104     0.5834     1.2140 C.3          1    LIG   0.0000
  12 C12          0.0365     1.4357     0.0487 C.3          1    LIG   0.0000
  13 C13          0.7586     2.7717     0.1096 C.3          1    LIG   0.0000
  14 C14         -1.4544     1.7439     0.1100 C.3          1    LIG   0.0000
  15 C15          0.4340     0.6738    -1.2129 C.3          1    LIG   0.0000
  16 H           -1.1762    -0.5477     1.5556 H            1    LIG   0.0000
  17 H           -1.0776    -3.5379     1.4355 H            1    LIG   0.0000
  18 H           -2.0709    -4.1392     0.2872 H            1    LIG   0.0000
  19 H           -0.5167    -4.6345     0.3633 H            1    LIG   0.0000
  20 H           -0.4593    -3.9550    -3.4980 H            1    LIG   0.0000
  21 H           -0.7866    -4.8147    -2.1488 H            1    LIG   0.0000
  22 H           -2.5990    -4.7690    -3.5474 H            1    LIG   0.0000
  23 H            0.4122    -1.1198     3.0805 H            1    LIG   0.0000
  24 H            0.3482     1.0748     2.0697 H            1    LIG   0.0000
  25 H            1.4888     0.4023     1.1140 H            1    LIG   0.0000
  26 H            0.4887     3.2589     0.9402 H            1    LIG   0.0000
  27 H            1.7464     2.6165     0.1203 H            1    LIG   0.0000
  28 H            0.5157     3.3187    -0.6915 H            1    LIG   0.0000
  29 H           -1.6575     2.2417     0.9532 H            1    LIG   0.0000
  30 H           -1.7117     2.3037    -0.6777 H            1    LIG   0.0000
  31 H           -1.9725     0.8888     0.0946 H            1    LIG   0.0000
  32 H            0.0689     1.1667    -2.0027 H            1    LIG   0.0000
  33 H            1.4325     0.6552    -1.2641 H            1    LIG   0.0000
@<TRIPOS>BOND
   1        1        2 1
   2        2        3 2
   3        3        4 1
   4        4        5 1
   5        3        6 1
   6        6        7 1
   7        7        8 2
   8        8        2 1
   9        8        9 1
  10        9       10 1
  11        9       11 1
  12       11       12 1
  13       12       13 1
  14       12       14 1
  15       12       15 1
  16       15        7 1
  17        9       16 1
  18        1       17 1
  19        1       18 1
  20        1       19 1
  21        4       20 1
  22        4       21 1
  23        5       22 1
  24       10       23 1
  25       11       24 1
  26       11       25 1
  27       13       26 1
  28       13       27 1
  29       13       28 1
  30       14       29 1
  31       14       30 1
  32       14       31 1
  33       15       32 1
  34       15       33 1

@<TRIPOS>MOLECULE

  33   34
SMALL
USER_CHARGES
@<TRIPOS>ATOM
   1 C1          -1.1330    -3.8572     0.4895 C.3          1    LIG   0.0000
   2 C2          -0.7279    -2.7305    -0.4510 C.2          1    LIG   0.0000
   3 C3          -0.6736    -2.7683    -1.8057 C.2          1    LIG   0.0000
   4 C4          -1.0015    -3.9815    -2.6582 C.3          1    LIG   0.0000
   5 O5          -0.4868    -5.1498    -2.0365 O.3          1    LIG   0.0000
   6 O6          -0.2921    -1.5988    -2.2698 O.2          1    LIG   0.0000
   7 C7          -0.0709    -0.7605    -1.2741 C.2          1    LIG   0.0000
   8 C8          -0.3534    -1.4171    -0.1171 C.2          1    LIG   0.0000
   9 C9          -0.2463    -0.7405     1.2424 C.3          1    LIG   0.0000
  10 O10          0.3572    -1.5931     2.2013 O.3          1    LIG   0.0000
  11 C11          0.5104     0.5834     1.2140 C.3          1    LIG   0.0000
  12 C12          0.0365     1.4357     0.0487 C.3          1    LIG   0.0000
  13 C13          0.7586     2.7717     0.1096 C.3          1    LIG   0.0000
  14 C14         -1.4544     1.7439     0.1100 C.3          1    LIG   0.0000
  15 C15          0.4340     0.6738    -1.2129 C.3          1    LIG   0.0000
  16 H           -1.1762    -0.5477     1.5556 H            1    LIG   0.0000
  17 H           -1.0776    -3.5379     1.4355 H            1    LIG   0.0000
  18 H           -2.0709    -4.1392     0.2872 H            1    LIG   0.0000
  19 H           -0.5167    -4.6345     0.3633 H            1    LIG   0.0000
  20 H           -1.9935    -4.0639    -2.7531 H            1    LIG   0.0000
  21 H           -0.5878    -3.8752    -3.5623 H            1    LIG   0.0000
  22 H           -0.7027    -5.9487    -2.5979 H            1    LIG   0.0000
  23 H            0.4122    -1.1198     3.0805 H            1    LIG   0.0000
  24 H            0.3482     1.0748     2.0697 H            1    LIG   0.0000
  25 H            1.4888     0.4023     1.1140 H            1    LIG   0.0000
  26 H            0.4887     3.2589     0.9402 H            1    LIG   0.0000
  27 H            1.7464     2.6165     0.1203 H            1    LIG   0.0000
  28 H            0.5157     3.3187    -0.6915 H            1    LIG   0.0000
  29 H           -1.6575     2.2417     0.9532 H            1    LIG   0.0000
  30 H           -1.7117     2.3037    -0.6777 H            1    LIG   0.0000
  31 H           -1.9725     0.8888     0.0946 H            1    LIG   0.0000
  32 H            0.0689     1.1667    -2.0027 H            1    LIG   0.0000
  33 H            1.4325     0.6552    -1.2641 H            1    LIG   0.0000
@<TRIPOS>BOND
   1        1        2 1
   2        2        3 2
   3        3        4 1
   4        4        5 1
   5        3        6 1
   6        6        7 1
   7        7        8 2
   8        8        2 1
   9        8        9 1
  10        9       10 1
  11        9       11 1
  12       11       12 1
  13       12       13 1
  14       12       14 1
  15       12       15 1
  16       15        7 1
  17        9       16 1
  18        1       17 1
  19        1       18 1
  20        1       19 1
  21        4       20 1
  22        4       21 1
  23        5       22 1
  24       10       23 1
  25       11       24 1
  26       11       25 1
  27       13       26 1
  28       13       27 1
  29       13       28 1
  30       14       29 1
  31       14       30 1
  32       14       31 1
  33       15       32 1
  34       15       33 1

@<TRIPOS>MOLECULE

  33   34
SMALL
USER_CHARGES
@<TRIPOS>ATOM
   1 C1          -1.1330    -3.8572     0.4895 C.3          1    LIG   0.0000
   2 C2          -0.7279    -2.7305    -0.4510 C.2          1    LIG   0.0000
   3 C3          -0.6736    -2.7683    -1.8057 C.2          1    LIG   0.0000
   4 C4          -1.0015    -3.9815    -2.6582 C.3          1    LIG   0.0000
   5 O5          -0.0758    -4.0700    -3.7313 O.3          1    LIG   0.0000
   6 O6          -0.2921    -1.5988    -2.2698 O.2          1    LIG   0.0000
   7 C7          -0.0709    -0.7605    -1.2741 C.2          1    LIG   0.0000
   8 C8          -0.3534    -1.4171    -0.1171 C.2          1    LIG   0.0000
   9 C9          -0.2463    -0.7405     1.2424 C.3          1    LIG   0.0000
  10 O10          0.3572    -1.5931     2.2013 O.3          1    LIG   0.0000
  11 C11          0.5104     0.5834     1.2140 C.3          1    LIG   0.0000
  12 C12          0.0365     1.4357     0.0487 C.3          1    LIG   0.0000
  13 C13          0.7586     2.7717     0.1096 C.3          1    LIG   0.0000
  14 C14         -1.4544     1.7439     0.1100 C.3          1    LIG   0.0000
  15 C15          0.4340     0.6738    -1.2129 C.3          1    LIG   0.0000
  16 H           -1.1762    -0.5477     1.5556 H            1    LIG   0.0000
  17 H           -1.0776    -3.5379     1.4355 H            1    LIG   0.0000
  18 H           -2.0709    -4.1392     0.2872 H            1    LIG   0.0000
  19 H           -0.5167    -4.6345     0.3633 H            1    LIG   0.0000
  20 H           -0.9428    -4.8080    -2.0983 H            1    LIG   0.0000
  21 H           -1.9279    -3.8915    -3.0237 H            1    LIG   0.0000
  22 H           -0.2917    -4.8689    -4.2927 H            1    LIG   0.0000
  23 H            0.4122    -1.1198     3.0805 H            1    LIG   0.0000
  24 H            0.3482     1.0748     2.0697 H            1    LIG   0.0000
  25 H            1.4888     0.4023     1.1140 H            1    LIG   0.0000
  26 H            0.4887     3.2589     0.9402 H            1    LIG   0.0000
  27 H            1.7464     2.6165     0.1203 H            1    LIG   0.0000
  28 H            0.5157     3.3187    -0.6915 H            1    LIG   0.0000
  29 H           -1.6575     2.2417     0.9532 H            1    LIG   0.0000
  30 H           -1.7117     2.3037    -0.6777 H            1    LIG   0.0000
  31 H           -1.9725     0.8888     0.0946 H            1    LIG   0.0000
  32 H            0.0689     1.1667    -2.0027 H            1    LIG   0.0000
  33 H            1.4325     0.6552    -1.2641 H            1    LIG   0.0000
@<TRIPOS>BOND
   1        1        2 1
   2        2        3 2
   3        3        4 1
   4        4        5 1
   5        3        6 1
   6        6        7 1
   7        7        8 2
   8        8        2 1
   9        8        9 1
  10        9       10 1
  11        9       11 1
  12       11       12 1
  13       12       13 1
  14       12       14 1
  15       12       15 1
  16       15        7 1
  17        9       16 1
  18        1       17 1
  19        1       18 1
  20        1       19 1
  21        4       20 1
  22        4       21 1
  23        5       22 1
  24       10       23 1
  25       11       24 1
  26       11       25 1
  27       13       26 1
  28       13       27 1
  29       13       28 1
  30       14       29 1
  31       14       30 1
  32       14       31 1
  33       15       32 1
  34       15       33 1

@<TRIPOS>MOLECULE

  33   34
SMALL
USER_CHARGES
@<TRIPOS>ATOM
   1 C1          -2.6196     2.0706    -0.4314 C.3          1    LIG   0.0000
   2 C2          -1.1613     2.4097    -0.1725 C.2          1    LIG   0.0000
   3 C3          -0.6445     3.6513     0.0251 C.2          1    LIG   0.0000
   4 C4          -1.4296     4.9532     0.0272 C.3          1    LIG   0.0000
   5 O5          -1.8776     5.2336     1.3452 O.3          1    LIG   0.0000
   6 O6           0.6473     3.5377     0.2084 O.2          1    LIG   0.0000
   7 C7           1.0096     2.2704     0.1692 C.2          1    LIG   0.0000
   8 C8          -0.0853     1.5102    -0.0965 C.2          1    LIG   0.0000
   9 C9          -0.0006    -0.0039    -0.2498 C.3          1    LIG   0.0000
  10 O10         -0.2199    -0.3639    -1.6077 O.3          1    LIG   0.0000
  11 C11          1.3499    -0.5041     0.2497 C.3          1    LIG   0.0000
  12 C12          2.5298     0.3002    -0.2823 C.3          1    LIG   0.0000
  13 C13          3.8314    -0.3590     0.1327 C.3          1    LIG   0.0000
  14 C14          2.5984     0.3975    -1.8009 C.3          1    LIG   0.0000
  15 C15          2.3882     1.6667     0.3697 C.3          1    LIG   0.0000
  16 H           -0.7187    -0.4196     0.3083 H            1    LIG   0.0000
  17 H           -2.7176     1.0814    -0.5401 H            1    LIG   0.0000
  18 H           -3.1755     2.3778     0.3410 H            1    LIG   0.0000
  19 H           -2.9255     2.5295    -1.2656 H            1    LIG   0.0000
  20 H           -0.8419     5.6973    -0.2905 H            1    LIG   0.0000
  21 H           -2.2181     4.8679    -0.5819 H            1    LIG   0.0000
  22 H           -2.3940     6.0899     1.3465 H            1    LIG   0.0000
  23 H           -0.1631    -1.3578    -1.7023 H            1    LIG   0.0000
  24 H            1.3567    -0.4535     1.2484 H            1    LIG   0.0000
  25 H            1.4607    -1.4558    -0.0366 H            1    LIG   0.0000
  26 H            3.9059    -1.2547    -0.3055 H            1    LIG   0.0000
  27 H            4.6003     0.2150    -0.1491 H            1    LIG   0.0000
  28 H            3.8461    -0.4716     1.1262 H            1    LIG   0.0000
  29 H            2.6909    -0.5192    -2.1898 H            1    LIG   0.0000
  30 H            1.7617     0.8230    -2.1458 H            1    LIG   0.0000
  31 H            3.3875     0.9524    -2.0641 H            1    LIG   0.0000
  32 H            2.5567     1.5723     1.3509 H            1    LIG   0.0000
  33 H            3.0684     2.2829    -0.0275 H            1    LIG   0.0000
@<TRIPOS>BOND
   1        1        2 1
   2        2        3 2
   3        3        4 1
   4        4        5 1
   5        3        6 1
   6        6        7 1
   7        7        8 2
   8        8        2 1
   9        8        9 1
  10        9       10 1
  11        9       11 1
  12       11       12 1
  13       12       13 1
  14       12       14 1
  15       12       15 1
  16       15        7 1
  17        9       16 1
  18        1       17 1
  19        1       18 1
  20        1       19 1
  21        4       20 1
  22        4       21 1
  23        5       22 1
  24       10       23 1
  25       11       24 1
  26       11       25 1
  27       13       26 1
  28       13       27 1
  29       13       28 1
  30       14       29 1
  31       14       30 1
  32       14       31 1
  33       15       32 1
  34       15       33 1

@<TRIPOS>MOLECULE

  33   34
SMALL
USER_CHARGES
@<TRIPOS>ATOM
   1 C1          -2.6196     2.0706    -0.4314 C.3          1    LIG   0.0000
   2 C2          -1.1613     2.4097    -0.1725 C.2          1    LIG   0.0000
   3 C3          -0.6445     3.6513     0.0251 C.2          1    LIG   0.0000
   4 C4          -1.4296     4.9532     0.0272 C.3          1    LIG   0.0000
   5 O5          -2.4074     4.9179    -1.0019 O.3          1    LIG   0.0000
   6 O6           0.6473     3.5377     0.2084 O.2          1    LIG   0.0000
   7 C7           1.0096     2.2704     0.1692 C.2          1    LIG   0.0000
   8 C8          -0.0853     1.5102    -0.0965 C.2          1    LIG   0.0000
   9 C9          -0.0006    -0.0039    -0.2498 C.3          1    LIG   0.0000
  10 O10         -0.2199    -0.3639    -1.6077 O.3          1    LIG   0.0000
  11 C11          1.3499    -0.5041     0.2497 C.3          1    LIG   0.0000
  12 C12          2.5298     0.3002    -0.2823 C.3          1    LIG   0.0000
  13 C13          3.8314    -0.3590     0.1327 C.3          1    LIG   0.0000
  14 C14          2.5984     0.3975    -1.8009 C.3          1    LIG   0.0000
  15 C15          2.3882     1.6667     0.3697 C.3          1    LIG   0.0000
  16 H           -0.7187    -0.4196     0.3083 H            1    LIG   0.0000
  17 H           -2.7176     1.0814    -0.5401 H            1    LIG   0.0000
  18 H           -3.1755     2.3778     0.3410 H            1    LIG   0.0000
  19 H           -2.9255     2.5295    -1.2656 H            1    LIG   0.0000
  20 H           -1.8809     5.0688     0.9120 H            1    LIG   0.0000
  21 H           -0.8060     5.7187    -0.1316 H            1    LIG   0.0000
  22 H           -2.9238     5.7743    -1.0005 H            1    LIG   0.0000
  23 H           -0.1631    -1.3578    -1.7023 H            1    LIG   0.0000
  24 H            1.3567    -0.4535     1.2484 H            1    LIG   0.0000
  25 H            1.4607    -1.4558    -0.0366 H            1    LIG   0.0000
  26 H            3.9059    -1.2547    -0.3055 H            1    LIG   0.0000
  27 H            4.6003     0.2150    -0.1491 H            1    LIG   0.0000
  28 H            3.8461    -0.4716     1.1262 H            1    LIG   0.0000
  29 H            2.6909    -0.5192    -2.1898 H            1    LIG   0.0000
  30 H            1.7617     0.8230    -2.1458 H            1    LIG   0.0000
  31 H            3.3875     0.9524    -2.0641 H            1    LIG   0.0000
  32 H            2.5567     1.5723     1.3509 H            1    LIG   0.0000
  33 H            3.0684     2.2829    -0.0275 H            1    LIG   0.0000
@<TRIPOS>BOND
   1        1        2 1
   2        2        3 2
   3        3        4 1
   4        4        5 1
   5        3        6 1
   6        6        7 1
   7        7        8 2
   8        8        2 1
   9        8        9 1
  10        9       10 1
  11        9       11 1
  12       11       12 1
  13       12       13 1
  14       12       14 1
  15       12       15 1
  16       15        7 1
  17        9       16 1
  18        1       17 1
  19        1       18 1
  20        1       19 1
  21        4       20 1
  22        4       21 1
  23        5       22 1
  24       10       23 1
  25       11       24 1
  26       11       25 1
  27       13       26 1
  28       13       27 1
  29       13       28 1
  30       14       29 1
  31       14       30 1
  32       14       31 1
  33       15       32 1
  34       15       33 1

@<TRIPOS>MOLECULE

  33   34
SMALL
USER_CHARGES
@<TRIPOS>ATOM
   1 C1          -2.6196     2.0706    -0.4314 C.3          1    LIG   0.0000
   2 C2          -1.1613     2.4097    -0.1725 C.2          1    LIG   0.0000
   3 C3          -0.6445     3.6513     0.0251 C.2          1    LIG   0.0000
   4 C4          -1.4296     4.9532     0.0272 C.3          1    LIG   0.0000
   5 O5          -0.6788     5.9597    -0.6359 O.3          1    LIG   0.0000
   6 O6           0.6473     3.5377     0.2084 O.2          1    LIG   0.0000
   7 C7           1.0096     2.2704     0.1692 C.2          1    LIG   0.0000
   8 C8          -0.0853     1.5102    -0.0965 C.2          1    LIG   0.0000
   9 C9          -0.0006    -0.0039    -0.2498 C.3          1    LIG   0.0000
  10 O10         -0.2199    -0.3639    -1.6077 O.3          1    LIG   0.0000
  11 C11          1.3499    -0.5041     0.2497 C.3          1    LIG   0.0000
  12 C12          2.5298     0.3002    -0.2823 C.3          1    LIG   0.0000
  13 C13          3.8314    -0.3590     0.1327 C.3          1    LIG   0.0000
  14 C14          2.5984     0.3975    -1.8009 C.3          1    LIG   0.0000
  15 C15          2.3882     1.6667     0.3697 C.3          1    LIG   0.0000
  16 H           -0.7187    -0.4196     0.3083 H            1    LIG   0.0000
  17 H           -2.7176     1.0814    -0.5401 H            1    LIG   0.0000
  18 H           -3.1755     2.3778     0.3410 H            1    LIG   0.0000
  19 H           -2.9255     2.5295    -1.2656 H            1    LIG   0.0000
  20 H           -2.2993     4.8187    -0.4477 H            1    LIG   0.0000
  21 H           -1.6049     5.2351     0.9704 H            1    LIG   0.0000
  22 H           -1.1952     6.8160    -0.6345 H            1    LIG   0.0000
  23 H           -0.1631    -1.3578    -1.7023 H            1    LIG   0.0000
  24 H            1.3567    -0.4535     1.2484 H            1    LIG   0.0000
  25 H            1.4607    -1.4558    -0.0366 H            1    LIG   0.0000
  26 H            3.9059    -1.2547    -0.3055 H            1    LIG   0.0000
  27 H            4.6003     0.2150    -0.1491 H            1    LIG   0.0000
  28 H            3.8461    -0.4716     1.1262 H            1    LIG   0.0000
  29 H            2.6909    -0.5192    -2.1898 H            1    LIG   0.0000
  30 H            1.7617     0.8230    -2.1458 H            1    LIG   0.0000
  31 H            3.3875     0.9524    -2.0641 H            1    LIG   0.0000
  32 H            2.5567     1.5723     1.3509 H            1    LIG   0.0000
  33 H            3.0684     2.2829    -0.0275 H            1    LIG   0.0000
@<TRIPOS>BOND
   1        1        2 1
   2        2        3 2
   3        3        4 1
   4        4        5 1
   5        3        6 1
   6        6        7 1
   7        7        8 2
   8        8        2 1
   9        8        9 1
  10        9       10 1
  11        9       11 1
  12       11       12 1
  13       12       13 1
  14       12       14 1
  15       12       15 1
  16       15        7 1
  17        9       16 1
  18        1       17 1
  19        1       18 1
  20        1       19 1
  21        4       20 1
  22        4       21 1
  23        5       22 1
  24       10       23 1
  25       11       24 1
  26       11       25 1
  27       13       26 1
  28       13       27 1
  29       13       28 1
  30       14       29 1
  31       14       30 1
  32       14       31 1
  33       15       32 1
  34       15       33 1

@<TRIPOS>MOLECULE

  33   34
SMALL
USER_CHARGES
@<TRIPOS>ATOM
   1 C1          -0.4103    -3.5647    -1.2148 C.3          1    LIG   0.0000
   2 C2          -0.9441    -2.1814    -0.8709 C.2          1    LIG   0.0000
   3 C3          -2.0937    -1.6247    -1.3264 C.2          1    LIG   0.0000
   4 C4          -3.0716    -2.3012    -2.2758 C.3          1    LIG   0.0000
   5 O5          -4.0376    -3.0225    -1.5254 O.3          1    LIG   0.0000
   6 O6          -2.2276    -0.4237    -0.8097 O.2          1    LIG   0.0000
   7 C7          -1.2003    -0.1468    -0.0488 C.2          1    LIG   0.0000
   8 C8          -0.3680    -1.2186    -0.0152 C.2          1    LIG   0.0000
   9 C9           0.8521    -1.0916     0.8835 C.3          1    LIG   0.0000
  10 O10          1.7904    -2.1283     0.6435 O.3          1    LIG   0.0000
  11 C11          1.5317     0.1845     0.4203 C.3          1    LIG   0.0000
  12 C12          0.6098     1.3969     0.3419 C.3          1    LIG   0.0000
  13 C13          1.1578     2.4861     1.2560 C.3          1    LIG   0.0000
  14 C14          0.6843     1.9439    -1.0745 C.3          1    LIG   0.0000
  15 C15         -0.8482     1.1273     0.6859 C.3          1    LIG   0.0000
  16 H            0.5955    -1.0430     1.8488 H            1    LIG   0.0000
  17 H            0.4561    -3.7155    -0.7387 H            1    LIG   0.0000
  18 H           -1.0723    -4.2578    -0.9297 H            1    LIG   0.0000
  19 H           -0.2639    -3.6296    -2.2019 H            1    LIG   0.0000
  20 H           -3.5308    -1.6079    -2.8312 H            1    LIG   0.0000
  21 H           -2.5749    -2.9312    -2.8727 H            1    LIG   0.0000
  22 H           -4.6803    -3.4671    -2.1493 H            1    LIG   0.0000
  23 H            2.5769    -2.0131     1.2502 H            1    LIG   0.0000
  24 H            2.2712     0.3948     1.0597 H            1    LIG   0.0000
  25 H            1.9136     0.0228    -0.4896 H            1    LIG   0.0000
  26 H            2.1156     2.6616     1.0283 H            1    LIG   0.0000
  27 H            0.6267     3.3242     1.1315 H            1    LIG   0.0000
  28 H            1.0909     2.1873     2.2079 H            1    LIG   0.0000
  29 H            1.6386     2.1251    -1.3121 H            1    LIG   0.0000
  30 H            0.3039     1.2732    -1.7113 H            1    LIG   0.0000
  31 H            0.1595     2.7931    -1.1320 H            1    LIG   0.0000
  32 H           -0.9589     1.0053     1.6722 H            1    LIG   0.0000
  33 H           -1.4268     1.8818     0.3763 H            1    LIG   0.0000
@<TRIPOS>BOND
   1        1        2 1
   2        2        3 2
   3        3        4 1
   4        4        5 1
   5        3        6 1
   6        6        7 1
   7        7        8 2
   8        8        2 1
   9        8        9 1
  10        9       10 1
  11        9       11 1
  12       11       12 1
  13       12       13 1
  14       12       14 1
  15       12       15 1
  16       15        7 1
  17        9       16 1
  18        1       17 1
  19        1       18 1
  20        1       19 1
  21        4       20 1
  22        4       21 1
  23        5       22 1
  24       10       23 1
  25       11       24 1
  26       11       25 1
  27       13       26 1
  28       13       27 1
  29       13       28 1
  30       14       29 1
  31       14       30 1
  32       14       31 1
  33       15       32 1
  34       15       33 1

@<TRIPOS>MOLECULE

  33   34
SMALL
USER_CHARGES
@<TRIPOS>ATOM
   1 C1          -0.4103    -3.5647    -1.2148 C.3          1    LIG   0.0000
   2 C2          -0.9441    -2.1814    -0.8709 C.2          1    LIG   0.0000
   3 C3          -2.0937    -1.6247    -1.3264 C.2          1    LIG   0.0000
   4 C4          -3.0716    -2.3012    -2.2758 C.3          1    LIG   0.0000
   5 O5          -2.3502    -3.0144    -3.2694 O.3          1    LIG   0.0000
   6 O6          -2.2276    -0.4237    -0.8097 O.2          1    LIG   0.0000
   7 C7          -1.2003    -0.1468    -0.0488 C.2          1    LIG   0.0000
   8 C8          -0.3680    -1.2186    -0.0152 C.2          1    LIG   0.0000
   9 C9           0.8521    -1.0916     0.8835 C.3          1    LIG   0.0000
  10 O10          1.7904    -2.1283     0.6435 O.3          1    LIG   0.0000
  11 C11          1.5317     0.1845     0.4203 C.3          1    LIG   0.0000
  12 C12          0.6098     1.3969     0.3419 C.3          1    LIG   0.0000
  13 C13          1.1578     2.4861     1.2560 C.3          1    LIG   0.0000
  14 C14          0.6843     1.9439    -1.0745 C.3          1    LIG   0.0000
  15 C15         -0.8482     1.1273     0.6859 C.3          1    LIG   0.0000
  16 H            0.5955    -1.0430     1.8488 H            1    LIG   0.0000
  17 H            0.4561    -3.7155    -0.7387 H            1    LIG   0.0000
  18 H           -1.0723    -4.2578    -0.9297 H            1    LIG   0.0000
  19 H           -0.2639    -3.6296    -2.2019 H            1    LIG   0.0000
  20 H           -3.6490    -2.9364    -1.7627 H            1    LIG   0.0000
  21 H           -3.6451    -1.6084    -2.7131 H            1    LIG   0.0000
  22 H           -2.9928    -3.4591    -3.8933 H            1    LIG   0.0000
  23 H            2.5769    -2.0131     1.2502 H            1    LIG   0.0000
  24 H            2.2712     0.3948     1.0597 H            1    LIG   0.0000
  25 H            1.9136     0.0228    -0.4896 H            1    LIG   0.0000
  26 H            2.1156     2.6616     1.0283 H            1    LIG   0.0000
  27 H            0.6267     3.3242     1.1315 H            1    LIG   0.0000
  28 H            1.0909     2.1873     2.2079 H            1    LIG   0.0000
  29 H            1.6386     2.1251    -1.3121 H            1    LIG   0.0000
  30 H            0.3039     1.2732    -1.7113 H            1    LIG   0.0000
  31 H            0.1595     2.7931    -1.1320 H            1    LIG   0.0000
  32 H           -0.9589     1.0053     1.6722 H            1    LIG   0.0000
  33 H           -1.4268     1.8818     0.3763 H            1    LIG   0.0000
@<TRIPOS>BOND
   1        1        2 1
   2        2        3 2
   3        3        4 1
   4        4        5 1
   5        3        6 1
   6        6        7 1
   7        7        8 2
   8        8        2 1
   9        8        9 1
  10        9       10 1
  11        9       11 1
  12       11       12 1
  13       12       13 1
  14       12       14 1
  15       12       15 1
  16       15        7 1
  17        9       16 1
  18        1       17 1
  19        1       18 1
  20        1       19 1
  21        4       20 1
  22        4       21 1
  23        5       22 1
  24       10       23 1
  25       11       24 1
  26       11       25 1
  27       13       26 1
  28       13       27 1
  29       13       28 1
  30       14       29 1
  31       14       30 1
  32       14       31 1
  33       15       32 1
  34       15       33 1

@<TRIPOS>MOLECULE

  33   34
SMALL
USER_CHARGES
@<TRIPOS>ATOM
   1 C1          -0.4103    -3.5647    -1.2148 C.3          1    LIG   0.0000
   2 C2          -0.9441    -2.1814    -0.8709 C.2          1    LIG   0.0000
   3 C3          -2.0937    -1.6247    -1.3264 C.2          1    LIG   0.0000
   4 C4          -3.0716    -2.3012    -2.2758 C.3          1    LIG   0.0000
   5 O5          -3.5508    -1.3522    -3.2171 O.3          1    LIG   0.0000
   6 O6          -2.2276    -0.4237    -0.8097 O.2          1    LIG   0.0000
   7 C7          -1.2003    -0.1468    -0.0488 C.2          1    LIG   0.0000
   8 C8          -0.3680    -1.2186    -0.0152 C.2          1    LIG   0.0000
   9 C9           0.8521    -1.0916     0.8835 C.3          1    LIG   0.0000
  10 O10          1.7904    -2.1283     0.6435 O.3          1    LIG   0.0000
  11 C11          1.5317     0.1845     0.4203 C.3          1    LIG   0.0000
  12 C12          0.6098     1.3969     0.3419 C.3          1    LIG   0.0000
  13 C13          1.1578     2.4861     1.2560 C.3          1    LIG   0.0000
  14 C14          0.6843     1.9439    -1.0745 C.3          1    LIG   0.0000
  15 C15         -0.8482     1.1273     0.6859 C.3          1    LIG   0.0000
  16 H            0.5955    -1.0430     1.8488 H            1    LIG   0.0000
  17 H            0.4561    -3.7155    -0.7387 H            1    LIG   0.0000
  18 H           -1.0723    -4.2578    -0.9297 H            1    LIG   0.0000
  19 H           -0.2639    -3.6296    -2.2019 H            1    LIG   0.0000
  20 H           -2.6079    -3.0444    -2.7582 H            1    LIG   0.0000
  21 H           -3.8406    -2.6710    -1.7544 H            1    LIG   0.0000
  22 H           -4.1935    -1.7968    -3.8411 H            1    LIG   0.0000
  23 H            2.5769    -2.0131     1.2502 H            1    LIG   0.0000
  24 H            2.2712     0.3948     1.0597 H            1    LIG   0.0000
  25 H            1.9136     0.0228    -0.4896 H            1    LIG   0.0000
  26 H            2.1156     2.6616     1.0283 H            1    LIG   0.0000
  27 H            0.6267     3.3242     1.1315 H            1    LIG   0.0000
  28 H            1.0909     2.1873     2.2079 H            1    LIG   0.0000
  29 H            1.6386     2.1251    -1.3121 H            1    LIG   0.0000
  30 H            0.3039     1.2732    -1.7113 H            1    LIG   0.0000
  31 H            0.1595     2.7931    -1.1320 H            1    LIG   0.0000
  32 H           -0.9589     1.0053     1.6722 H            1    LIG   0.0000
  33 H           -1.4268     1.8818     0.3763 H            1    LIG   0.0000
@<TRIPOS>BOND
   1        1        2 1
   2        2        3 2
   3        3        4 1
   4        4        5 1
   5        3        6 1
   6        6        7 1
   7        7        8 2
   8        8        2 1
   9        8        9 1
  10        9       10 1
  11        9       11 1
  12       11       12 1
  13       12       13 1
  14       12       14 1
  15       12       15 1
  16       15        7 1
  17        9       16 1
  18        1       17 1
  19        1       18 1
  20        1       19 1
  21        4       20 1
  22        4       21 1
  23        5       22 1
  24       10       23 1
  25       11       24 1
  26       11       25 1
  27       13       26 1
  28       13       27 1
  29       13       28 1
  30       14       29 1
  31       14       30 1
  32       14       31 1
  33       15       32 1
  34       15       33 1

@<TRIPOS>MOLECULE

  33   34
SMALL
USER_CHARGES
@<TRIPOS>ATOM
   1 C1          -0.9400    -3.9031     0.2526 C.3          1    LIG   0.0000
   2 C2          -1.3467    -2.4447     0.0741 C.2          1    LIG   0.0000
   3 C3          -2.6263    -1.9888     0.1148 C.2          1    LIG   0.0000
   4 C4          -3.8577    -2.8584     0.3324 C.3          1    LIG   0.0000
   5 O5          -4.1341    -2.9482     1.7223 O.3          1    LIG   0.0000
   6 O6          -2.6086    -0.6778    -0.0860 O.2          1    LIG   0.0000
   7 C7          -1.3660    -0.2364    -0.2331 C.2          1    LIG   0.0000
   8 C8          -0.5506    -1.3086    -0.1885 C.2          1    LIG   0.0000
   9 C9           0.9109    -0.9458    -0.3574 C.3          1    LIG   0.0000
  10 O10          1.2213    -0.4593    -1.6567 O.3          1    LIG   0.0000
  11 C11          1.1803     0.0323     0.7816 C.3          1    LIG   0.0000
  12 C12          0.3352     1.2832     0.6297 C.3          1    LIG   0.0000
  13 C13          1.1919     2.5036     0.3593 C.3          1    LIG   0.0000
  14 C14         -0.2950     1.5341     1.9944 C.3          1    LIG   0.0000
  15 C15         -0.7830     1.1521    -0.3936 C.3          1    LIG   0.0000
  16 H            1.4558    -1.7686    -0.1956 H            1    LIG   0.0000
  17 H            0.0543    -3.9830     0.1810 H            1    LIG   0.0000
  18 H           -1.2363    -4.2241     1.1521 H            1    LIG   0.0000
  19 H           -1.3710    -4.4587    -0.4584 H            1    LIG   0.0000
  20 H           -4.6407    -2.4510    -0.1376 H            1    LIG   0.0000
  21 H           -3.6884    -3.7735    -0.0336 H            1    LIG   0.0000
  22 H           -4.9425    -3.5192     1.8652 H            1    LIG   0.0000
  23 H            2.1953    -0.2380    -1.7059 H            1    LIG   0.0000
  24 H            0.9595    -0.4088     1.6515 H            1    LIG   0.0000
  25 H            2.1473     0.2870     0.7730 H            1    LIG   0.0000
  26 H            1.9158     2.5617     1.0468 H            1    LIG   0.0000
  27 H            1.6012     2.4287    -0.5501 H            1    LIG   0.0000
  28 H            0.6242     3.3257     0.4027 H            1    LIG   0.0000
  29 H            0.4249     1.6234     2.6827 H            1    LIG   0.0000
  30 H           -0.8329     2.3765     1.9634 H            1    LIG   0.0000
  31 H           -0.8906     0.7669     2.2327 H            1    LIG   0.0000
  32 H           -1.4866     1.8422    -0.2242 H            1    LIG   0.0000
  33 H           -0.4187     1.2673    -1.3177 H            1    LIG   0.0000
@<TRIPOS>BOND
   1        1        2 1
   2        2        3 2
   3        3        4 1
   4        4        5 1
   5        3        6 1
   6        6        7 1
   7        7        8 2
   8        8        2 1
   9        8        9 1
  10        9       10 1
  11        9       11 1
  12       11       12 1
  13       12       13 1
  14       12       14 1
  15       12       15 1
  16       15        7 1
  17        9       16 1
  18        1       17 1
  19        1       18 1
  20        1       19 1
  21        4       20 1
  22        4       21 1
  23        5       22 1
  24       10       23 1
  25       11       24 1
  26       11       25 1
  27       13       26 1
  28       13       27 1
  29       13       28 1
  30       14       29 1
  31       14       30 1
  32       14       31 1
  33       15       32 1
  34       15       33 1

@<TRIPOS>MOLECULE

  33   34
SMALL
USER_CHARGES
@<TRIPOS>ATOM
   1 C1          -0.9400    -3.9031     0.2526 C.3          1    LIG   0.0000
   2 C2          -1.3467    -2.4447     0.0741 C.2          1    LIG   0.0000
   3 C3          -2.6263    -1.9888     0.1148 C.2          1    LIG   0.0000
   4 C4          -3.8577    -2.8584     0.3324 C.3          1    LIG   0.0000
   5 O5          -3.7105    -4.0752    -0.3847 O.3          1    LIG   0.0000
   6 O6          -2.6086    -0.6778    -0.0860 O.2          1    LIG   0.0000
   7 C7          -1.3660    -0.2364    -0.2331 C.2          1    LIG   0.0000
   8 C8          -0.5506    -1.3086    -0.1885 C.2          1    LIG   0.0000
   9 C9           0.9109    -0.9458    -0.3574 C.3          1    LIG   0.0000
  10 O10          1.2213    -0.4593    -1.6567 O.3          1    LIG   0.0000
  11 C11          1.1803     0.0323     0.7816 C.3          1    LIG   0.0000
  12 C12          0.3352     1.2832     0.6297 C.3          1    LIG   0.0000
  13 C13          1.1919     2.5036     0.3593 C.3          1    LIG   0.0000
  14 C14         -0.2950     1.5341     1.9944 C.3          1    LIG   0.0000
  15 C15         -0.7830     1.1521    -0.3936 C.3          1    LIG   0.0000
  16 H            1.4558    -1.7686    -0.1956 H            1    LIG   0.0000
  17 H            0.0543    -3.9830     0.1810 H            1    LIG   0.0000
  18 H           -1.2363    -4.2241     1.1521 H            1    LIG   0.0000
  19 H           -1.3710    -4.4587    -0.4584 H            1    LIG   0.0000
  20 H           -3.9580    -3.0562     1.3075 H            1    LIG   0.0000
  21 H           -4.6694    -2.3747     0.0051 H            1    LIG   0.0000
  22 H           -4.5190    -4.6462    -0.2418 H            1    LIG   0.0000
  23 H            2.1953    -0.2380    -1.7059 H            1    LIG   0.0000
  24 H            0.9595    -0.4088     1.6515 H            1    LIG   0.0000
  25 H            2.1473     0.2870     0.7730 H            1    LIG   0.0000
  26 H            1.9158     2.5617     1.0468 H            1    LIG   0.0000
  27 H            1.6012     2.4287    -0.5501 H            1    LIG   0.0000
  28 H            0.6242     3.3257     0.4027 H            1    LIG   0.0000
  29 H            0.4249     1.6234     2.6827 H            1    LIG   0.0000
  30 H           -0.8329     2.3765     1.9634 H            1    LIG   0.0000
  31 H           -0.8906     0.7669     2.2327 H            1    LIG   0.0000
  32 H           -1.4866     1.8422    -0.2242 H            1    LIG   0.0000
  33 H           -0.4187     1.2673    -1.3177 H            1    LIG   0.0000
@<TRIPOS>BOND
   1        1        2 1
   2        2        3 2
   3        3        4 1
   4        4        5 1
   5        3        6 1
   6        6        7 1
   7        7        8 2
   8        8        2 1
   9        8        9 1
  10        9       10 1
  11        9       11 1
  12       11       12 1
  13       12       13 1
  14       12       14 1
  15       12       15 1
  16       15        7 1
  17        9       16 1
  18        1       17 1
  19        1       18 1
  20        1       19 1
  21        4       20 1
  22        4       21 1
  23        5       22 1
  24       10       23 1
  25       11       24 1
  26       11       25 1
  27       13       26 1
  28       13       27 1
  29       13       28 1
  30       14       29 1
  31       14       30 1
  32       14       31 1
  33       15       32 1
  34       15       33 1

@<TRIPOS>MOLECULE

  33   34
SMALL
USER_CHARGES
@<TRIPOS>ATOM
   1 C1          -0.9400    -3.9031     0.2526 C.3          1    LIG   0.0000
   2 C2          -1.3467    -2.4447     0.0741 C.2          1    LIG   0.0000
   3 C3          -2.6263    -1.9888     0.1148 C.2          1    LIG   0.0000
   4 C4          -3.8577    -2.8584     0.3324 C.3          1    LIG   0.0000
   5 O5          -4.9067    -2.4141    -0.5152 O.3          1    LIG   0.0000
   6 O6          -2.6086    -0.6778    -0.0860 O.2          1    LIG   0.0000
   7 C7          -1.3660    -0.2364    -0.2331 C.2          1    LIG   0.0000
   8 C8          -0.5506    -1.3086    -0.1885 C.2          1    LIG   0.0000
   9 C9           0.9109    -0.9458    -0.3574 C.3          1    LIG   0.0000
  10 O10          1.2213    -0.4593    -1.6567 O.3          1    LIG   0.0000
  11 C11          1.1803     0.0323     0.7816 C.3          1    LIG   0.0000
  12 C12          0.3352     1.2832     0.6297 C.3          1    LIG   0.0000
  13 C13          1.1919     2.5036     0.3593 C.3          1    LIG   0.0000
  14 C14         -0.2950     1.5341     1.9944 C.3          1    LIG   0.0000
  15 C15         -0.7830     1.1521    -0.3936 C.3          1    LIG   0.0000
  16 H            1.4558    -1.7686    -0.1956 H            1    LIG   0.0000
  17 H            0.0543    -3.9830     0.1810 H            1    LIG   0.0000
  18 H           -1.2363    -4.2241     1.1521 H            1    LIG   0.0000
  19 H           -1.3710    -4.4587    -0.4584 H            1    LIG   0.0000
  20 H           -3.6361    -3.8097     0.1179 H            1    LIG   0.0000
  21 H           -4.1489    -2.7910     1.2866 H            1    LIG   0.0000
  22 H           -5.7152    -2.9851    -0.3724 H            1    LIG   0.0000
  23 H            2.1953    -0.2380    -1.7059 H            1    LIG   0.0000
  24 H            0.9595    -0.4088     1.6515 H            1    LIG   0.0000
  25 H            2.1473     0.2870     0.7730 H            1    LIG   0.0000
  26 H            1.9158     2.5617     1.0468 H            1    LIG   0.0000
  27 H            1.6012     2.4287    -0.5501 H            1    LIG   0.0000
  28 H            0.6242     3.3257     0.4027 H            1    LIG   0.0000
  29 H            0.4249     1.6234     2.6827 H            1    LIG   0.0000
  30 H           -0.8329     2.3765     1.9634 H            1    LIG   0.0000
  31 H           -0.8906     0.7669     2.2327 H            1    LIG   0.0000
  32 H           -1.4866     1.8422    -0.2242 H            1    LIG   0.0000
  33 H           -0.4187     1.2673    -1.3177 H            1    LIG   0.0000
@<TRIPOS>BOND
   1        1        2 1
   2        2        3 2
   3        3        4 1
   4        4        5 1
   5        3        6 1
   6        6        7 1
   7        7        8 2
   8        8        2 1
   9        8        9 1
  10        9       10 1
  11        9       11 1
  12       11       12 1
  13       12       13 1
  14       12       14 1
  15       12       15 1
  16       15        7 1
  17        9       16 1
  18        1       17 1
  19        1       18 1
  20        1       19 1
  21        4       20 1
  22        4       21 1
  23        5       22 1
  24       10       23 1
  25       11       24 1
  26       11       25 1
  27       13       26 1
  28       13       27 1
  29       13       28 1
  30       14       29 1
  31       14       30 1
  32       14       31 1
  33       15       32 1
  34       15       33 1

