@<TRIPOS>MOLECULE
*****
 33 34 0 0 0
SMALL
USER_CHARGES

@<TRIPOS>ATOM
      1 C1         -2.6196    2.0706   -0.4314 C.3     1  LIG1        0.0000
      2 C2         -1.1613    2.4097   -0.1725 C.2     1  LIG1        0.0000
      3 C3         -0.6445    3.6513    0.0251 C.2     1  LIG1        0.0000
      4 C4         -1.4296    4.9532    0.0272 C.3     1  LIG1        0.0000
      5 O5         -0.6788    5.9597   -0.6359 O.3     1  LIG1        0.0000
      6 O6          0.6473    3.5377    0.2084 O.2     1  LIG1        0.0000
      7 C7          1.0096    2.2704    0.1692 C.2     1  LIG1        0.0000
      8 C8         -0.0853    1.5102   -0.0965 C.2     1  LIG1        0.0000
      9 C9         -0.0006   -0.0039   -0.2498 C.3     1  LIG1        0.0000
     10 O10        -0.2199   -0.3639   -1.6077 O.3     1  LIG1        0.0000
     11 C11         1.3499   -0.5041    0.2497 C.3     1  LIG1        0.0000
     12 C12         2.5298    0.3002   -0.2823 C.3     1  LIG1        0.0000
     13 C13         3.8314   -0.3590    0.1327 C.3     1  LIG1        0.0000
     14 C14         2.5984    0.3975   -1.8009 C.3     1  LIG1        0.0000
     15 C15         2.3882    1.6667    0.3697 C.3     1  LIG1        0.0000
     16 H          -0.7187   -0.4196    0.3083 H       1  LIG1        0.0000
     17 H          -2.7176    1.0814   -0.5401 H       1  LIG1        0.0000
     18 H          -3.1755    2.3778    0.3410 H       1  LIG1        0.0000
     19 H          -2.9255    2.5295   -1.2656 H       1  LIG1        0.0000
     20 H          -2.2993    4.8187   -0.4477 H       1  LIG1        0.0000
     21 H          -1.6049    5.2351    0.9704 H       1  LIG1        0.0000
     22 H          -1.1952    6.8160   -0.6345 H       1  LIG1        0.0000
     23 H          -0.1631   -1.3578   -1.7023 H       1  LIG1        0.0000
     24 H           1.3567   -0.4535    1.2484 H       1  LIG1        0.0000
     25 H           1.4607   -1.4558   -0.0366 H       1  LIG1        0.0000
     26 H           3.9059   -1.2547   -0.3055 H       1  LIG1        0.0000
     27 H           4.6003    0.2150   -0.1491 H       1  LIG1        0.0000
     28 H           3.8461   -0.4716    1.1262 H       1  LIG1        0.0000
     29 H           2.6909   -0.5192   -2.1898 H       1  LIG1        0.0000
     30 H           1.7617    0.8230   -2.1458 H       1  LIG1        0.0000
     31 H           3.3875    0.9524   -2.0641 H       1  LIG1        0.0000
     32 H           2.5567    1.5723    1.3509 H       1  LIG1        0.0000
     33 H           3.0684    2.2829   -0.0275 H       1  LIG1        0.0000
@<TRIPOS>BOND
     1     1     2    1
     2     2     3    2
     3     3     4    1
     4     4     5    1
     5     3     6    1
     6     6     7    1
     7     7     8    2
     8     8     2    1
     9     8     9    1
    10     9    10    1
    11     9    11    1
    12    11    12    1
    13    12    13    1
    14    12    14    1
    15    12    15    1
    16    15     7    1
    17     9    16    1
    18     1    17    1
    19     1    18    1
    20     1    19    1
    21     4    20    1
    22     4    21    1
    23     5    22    1
    24    10    23    1
    25    11    24    1
    26    11    25    1
    27    13    26    1
    28    13    27    1
    29    13    28    1
    30    14    29    1
    31    14    30    1
    32    14    31    1
    33    15    32    1
    34    15    33    1
