@<TRIPOS>MOLECULE
*****
 33 34 0 0 0
SMALL
USER_CHARGES

@<TRIPOS>ATOM
      1 C1         -1.1330   -3.8572    0.4895 C.3     1  LIG1        0.0000
      2 C2         -0.7279   -2.7305   -0.4510 C.2     1  LIG1        0.0000
      3 C3         -0.6736   -2.7683   -1.8057 C.2     1  LIG1        0.0000
      4 C4         -1.0015   -3.9815   -2.6582 C.3     1  LIG1        0.0000
      5 O5         -2.3831   -3.9702   -2.9860 O.3     1  LIG1        0.0000
      6 O6         -0.2921   -1.5988   -2.2698 O.2     1  LIG1        0.0000
      7 C7         -0.0709   -0.7605   -1.2741 C.2     1  LIG1        0.0000
      8 C8         -0.3534   -1.4171   -0.1171 C.2     1  LIG1        0.0000
      9 C9         -0.2463   -0.7405    1.2424 C.3     1  LIG1        0.0000
     10 O10         0.3572   -1.5931    2.2013 O.3     1  LIG1        0.0000
     11 C11         0.5104    0.5834    1.2140 C.3     1  LIG1        0.0000
     12 C12         0.0365    1.4357    0.0487 C.3     1  LIG1        0.0000
     13 C13         0.7586    2.7717    0.1096 C.3     1  LIG1        0.0000
     14 C14        -1.4544    1.7439    0.1100 C.3     1  LIG1        0.0000
     15 C15         0.4340    0.6738   -1.2129 C.3     1  LIG1        0.0000
     16 H          -1.1762   -0.5477    1.5556 H       1  LIG1        0.0000
     17 H          -1.0776   -3.5379    1.4355 H       1  LIG1        0.0000
     18 H          -2.0709   -4.1392    0.2872 H       1  LIG1        0.0000
     19 H          -0.5167   -4.6345    0.3633 H       1  LIG1        0.0000
     20 H          -0.4593   -3.9550   -3.4980 H       1  LIG1        0.0000
     21 H          -0.7866   -4.8147   -2.1488 H       1  LIG1        0.0000
     22 H          -2.5990   -4.7690   -3.5474 H       1  LIG1        0.0000
     23 H           0.4122   -1.1198    3.0805 H       1  LIG1        0.0000
     24 H           0.3482    1.0748    2.0697 H       1  LIG1        0.0000
     25 H           1.4888    0.4023    1.1140 H       1  LIG1        0.0000
     26 H           0.4887    3.2589    0.9402 H       1  LIG1        0.0000
     27 H           1.7464    2.6165    0.1203 H       1  LIG1        0.0000
     28 H           0.5157    3.3187   -0.6915 H       1  LIG1        0.0000
     29 H          -1.6575    2.2417    0.9532 H       1  LIG1        0.0000
     30 H          -1.7117    2.3037   -0.6777 H       1  LIG1        0.0000
     31 H          -1.9725    0.8888    0.0946 H       1  LIG1        0.0000
     32 H           0.0689    1.1667   -2.0027 H       1  LIG1        0.0000
     33 H           1.4325    0.6552   -1.2641 H       1  LIG1        0.0000
@<TRIPOS>BOND
     1     1     2    1
     2     2     3    2
     3     3     4    1
     4     4     5    1
     5     3     6    1
     6     6     7    1
     7     7     8    2
     8     8     2    1
     9     8     9    1
    10     9    10    1
    11     9    11    1
    12    11    12    1
    13    12    13    1
    14    12    14    1
    15    12    15    1
    16    15     7    1
    17     9    16    1
    18     1    17    1
    19     1    18    1
    20     1    19    1
    21     4    20    1
    22     4    21    1
    23     5    22    1
    24    10    23    1
    25    11    24    1
    26    11    25    1
    27    13    26    1
    28    13    27    1
    29    13    28    1
    30    14    29    1
    31    14    30    1
    32    14    31    1
    33    15    32    1
    34    15    33    1
