@<TRIPOS>MOLECULE
*****
 33 34 0 0 0
SMALL
USER_CHARGES

@<TRIPOS>ATOM
      1 C1         -0.9400   -3.9031    0.2526 C.3     1  LIG1        0.0000
      2 C2         -1.3467   -2.4447    0.0741 C.2     1  LIG1        0.0000
      3 C3         -2.6263   -1.9888    0.1148 C.2     1  LIG1        0.0000
      4 C4         -3.8577   -2.8584    0.3324 C.3     1  LIG1        0.0000
      5 O5         -4.1341   -2.9482    1.7223 O.3     1  LIG1        0.0000
      6 O6         -2.6086   -0.6778   -0.0860 O.2     1  LIG1        0.0000
      7 C7         -1.3660   -0.2364   -0.2331 C.2     1  LIG1        0.0000
      8 C8         -0.5506   -1.3086   -0.1885 C.2     1  LIG1        0.0000
      9 C9          0.9109   -0.9458   -0.3574 C.3     1  LIG1        0.0000
     10 O10         1.2213   -0.4593   -1.6567 O.3     1  LIG1        0.0000
     11 C11         1.1803    0.0323    0.7816 C.3     1  LIG1        0.0000
     12 C12         0.3352    1.2832    0.6297 C.3     1  LIG1        0.0000
     13 C13         1.1919    2.5036    0.3593 C.3     1  LIG1        0.0000
     14 C14        -0.2950    1.5341    1.9944 C.3     1  LIG1        0.0000
     15 C15        -0.7830    1.1521   -0.3936 C.3     1  LIG1        0.0000
     16 H           1.4558   -1.7686   -0.1956 H       1  LIG1        0.0000
     17 H           0.0543   -3.9830    0.1810 H       1  LIG1        0.0000
     18 H          -1.2363   -4.2241    1.1521 H       1  LIG1        0.0000
     19 H          -1.3710   -4.4587   -0.4584 H       1  LIG1        0.0000
     20 H          -4.6407   -2.4510   -0.1376 H       1  LIG1        0.0000
     21 H          -3.6884   -3.7735   -0.0336 H       1  LIG1        0.0000
     22 H          -4.9425   -3.5192    1.8652 H       1  LIG1        0.0000
     23 H           2.1953   -0.2380   -1.7059 H       1  LIG1        0.0000
     24 H           0.9595   -0.4088    1.6515 H       1  LIG1        0.0000
     25 H           2.1473    0.2870    0.7730 H       1  LIG1        0.0000
     26 H           1.9158    2.5617    1.0468 H       1  LIG1        0.0000
     27 H           1.6012    2.4287   -0.5501 H       1  LIG1        0.0000
     28 H           0.6242    3.3257    0.4027 H       1  LIG1        0.0000
     29 H           0.4249    1.6234    2.6827 H       1  LIG1        0.0000
     30 H          -0.8329    2.3765    1.9634 H       1  LIG1        0.0000
     31 H          -0.8906    0.7669    2.2327 H       1  LIG1        0.0000
     32 H          -1.4866    1.8422   -0.2242 H       1  LIG1        0.0000
     33 H          -0.4187    1.2673   -1.3177 H       1  LIG1        0.0000
@<TRIPOS>BOND
     1     1     2    1
     2     2     3    2
     3     3     4    1
     4     4     5    1
     5     3     6    1
     6     6     7    1
     7     7     8    2
     8     8     2    1
     9     8     9    1
    10     9    10    1
    11     9    11    1
    12    11    12    1
    13    12    13    1
    14    12    14    1
    15    12    15    1
    16    15     7    1
    17     9    16    1
    18     1    17    1
    19     1    18    1
    20     1    19    1
    21     4    20    1
    22     4    21    1
    23     5    22    1
    24    10    23    1
    25    11    24    1
    26    11    25    1
    27    13    26    1
    28    13    27    1
    29    13    28    1
    30    14    29    1
    31    14    30    1
    32    14    31    1
    33    15    32    1
    34    15    33    1
