@<TRIPOS>MOLECULE
*****
 33 34 0 0 0
SMALL
USER_CHARGES

@<TRIPOS>ATOM
      1 C1         -0.4103   -3.5647   -1.2148 C.3     1  LIG1        0.0000
      2 C2         -0.9441   -2.1814   -0.8709 C.2     1  LIG1        0.0000
      3 C3         -2.0937   -1.6247   -1.3264 C.2     1  LIG1        0.0000
      4 C4         -3.0716   -2.3012   -2.2758 C.3     1  LIG1        0.0000
      5 O5         -4.0376   -3.0225   -1.5254 O.3     1  LIG1        0.0000
      6 O6         -2.2276   -0.4237   -0.8097 O.2     1  LIG1        0.0000
      7 C7         -1.2003   -0.1468   -0.0488 C.2     1  LIG1        0.0000
      8 C8         -0.3680   -1.2186   -0.0152 C.2     1  LIG1        0.0000
      9 C9          0.8521   -1.0916    0.8835 C.3     1  LIG1        0.0000
     10 O10         1.7904   -2.1283    0.6435 O.3     1  LIG1        0.0000
     11 C11         1.5317    0.1845    0.4203 C.3     1  LIG1        0.0000
     12 C12         0.6098    1.3969    0.3419 C.3     1  LIG1        0.0000
     13 C13         1.1578    2.4861    1.2560 C.3     1  LIG1        0.0000
     14 C14         0.6843    1.9439   -1.0745 C.3     1  LIG1        0.0000
     15 C15        -0.8482    1.1273    0.6859 C.3     1  LIG1        0.0000
     16 H           0.5955   -1.0430    1.8488 H       1  LIG1        0.0000
     17 H           0.4561   -3.7155   -0.7387 H       1  LIG1        0.0000
     18 H          -1.0723   -4.2578   -0.9297 H       1  LIG1        0.0000
     19 H          -0.2639   -3.6296   -2.2019 H       1  LIG1        0.0000
     20 H          -3.5308   -1.6079   -2.8312 H       1  LIG1        0.0000
     21 H          -2.5749   -2.9312   -2.8727 H       1  LIG1        0.0000
     22 H          -4.6803   -3.4671   -2.1493 H       1  LIG1        0.0000
     23 H           2.5769   -2.0131    1.2502 H       1  LIG1        0.0000
     24 H           2.2712    0.3948    1.0597 H       1  LIG1        0.0000
     25 H           1.9136    0.0228   -0.4896 H       1  LIG1        0.0000
     26 H           2.1156    2.6616    1.0283 H       1  LIG1        0.0000
     27 H           0.6267    3.3242    1.1315 H       1  LIG1        0.0000
     28 H           1.0909    2.1873    2.2079 H       1  LIG1        0.0000
     29 H           1.6386    2.1251   -1.3121 H       1  LIG1        0.0000
     30 H           0.3039    1.2732   -1.7113 H       1  LIG1        0.0000
     31 H           0.1595    2.7931   -1.1320 H       1  LIG1        0.0000
     32 H          -0.9589    1.0053    1.6722 H       1  LIG1        0.0000
     33 H          -1.4268    1.8818    0.3763 H       1  LIG1        0.0000
@<TRIPOS>BOND
     1     1     2    1
     2     2     3    2
     3     3     4    1
     4     4     5    1
     5     3     6    1
     6     6     7    1
     7     7     8    2
     8     8     2    1
     9     8     9    1
    10     9    10    1
    11     9    11    1
    12    11    12    1
    13    12    13    1
    14    12    14    1
    15    12    15    1
    16    15     7    1
    17     9    16    1
    18     1    17    1
    19     1    18    1
    20     1    19    1
    21     4    20    1
    22     4    21    1
    23     5    22    1
    24    10    23    1
    25    11    24    1
    26    11    25    1
    27    13    26    1
    28    13    27    1
    29    13    28    1
    30    14    29    1
    31    14    30    1
    32    14    31    1
    33    15    32    1
    34    15    33    1
