@<TRIPOS>MOLECULE

  22   23
SMALL
USER_CHARGES
@<TRIPOS>ATOM
   1 C1           0.3887     2.2807     0.9494 C.3          1    LIG   0.0000
   2 O2           1.0000     1.0000     1.0000 O.3          1    LIG   0.0000
   3 C3           2.3502     1.0000     1.0000 C.ar         1    LIG   0.0000
   4 C4           3.0510     2.2008     0.9524 C.ar         1    LIG   0.0000
   5 C5           4.4423     2.1946     0.9539 C.ar         1    LIG   0.0000
   6 C6           5.1151     0.9781     1.0027 C.ar         1    LIG   0.0000
   7 Cl7          6.8946     0.9607     1.0051 Cl           1    LIG   0.0000
   8 C8           4.4249    -0.2288     1.0497 C.ar         1    LIG   0.0000
   9 C9           3.0344    -0.2102     1.0478 C.ar         1    LIG   0.0000
  10 N10          2.3255    -1.4159     1.0945 N.pl3        1    LIG   0.0000
  11 C11          1.3079    -1.7840     0.2639 C.2          1    LIG   0.0000
  12 N12          0.9149    -2.9837     0.6340 N.2          1    LIG   0.0000
  13 N13          1.6481    -3.3674     1.6682 N.2          1    LIG   0.0000
  14 C14          2.5187    -2.4355     1.9791 C.2          1    LIG   0.0000
  15 H           -0.6058     2.1757     0.9535 H            1    LIG   0.0000
  16 H            0.6707     2.8163     1.7454 H            1    LIG   0.0000
  17 H            0.6707     2.7518     0.1136 H            1    LIG   0.0000
  18 H            2.5548     3.0683     0.9171 H            1    LIG   0.0000
  19 H            4.9524     3.0541     0.9203 H            1    LIG   0.0000
  20 H            4.9210    -1.0963     1.0844 H            1    LIG   0.0000
  21 H            0.9306    -1.2423    -0.4872 H            1    LIG   0.0000
  22 H            3.1910    -2.4670     2.7187 H            1    LIG   0.0000
@<TRIPOS>BOND
   1        1        2 1
   2        2        3 1
   3        3        4 ar
   4        4        5 ar
   5        5        6 ar
   6        6        7 1
   7        6        8 ar
   8        8        9 ar
   9        9        3 ar
  10        9       10 1
  11       10       11 1
  12       11       12 2
  13       12       13 1
  14       13       14 2
  15       14       10 1
  16        1       15 1
  17        1       16 1
  18        1       17 1
  19        4       18 1
  20        5       19 1
  21        8       20 1
  22       11       21 1
  23       14       22 1

@<TRIPOS>MOLECULE

  22   23
SMALL
USER_CHARGES
@<TRIPOS>ATOM
   1 C1           0.3887     2.2807     0.9494 C.3          1    LIG   0.0000
   2 O2           1.0000     1.0000     1.0000 O.3          1    LIG   0.0000
   3 C3           2.3502     1.0000     1.0000 C.ar         1    LIG   0.0000
   4 C4           3.0510     2.2008     0.9524 C.ar         1    LIG   0.0000
   5 C5           4.4423     2.1946     0.9539 C.ar         1    LIG   0.0000
   6 C6           5.1151     0.9781     1.0027 C.ar         1    LIG   0.0000
   7 Cl7          6.8946     0.9607     1.0051 Cl           1    LIG   0.0000
   8 C8           4.4249    -0.2288     1.0497 C.ar         1    LIG   0.0000
   9 C9           3.0344    -0.2102     1.0478 C.ar         1    LIG   0.0000
  10 N10          2.3255    -1.4159     1.0945 N.pl3        1    LIG   0.0000
  11 C11          1.5937    -1.9592     0.0795 C.2          1    LIG   0.0000
  12 N12          1.0909    -3.0916     0.5218 N.2          1    LIG   0.0000
  13 N13          1.4797    -3.2642     1.7762 N.2          1    LIG   0.0000
  14 C14          2.2333    -2.2606     2.1609 C.2          1    LIG   0.0000
  15 H           -0.6058     2.1757     0.9535 H            1    LIG   0.0000
  16 H            0.6707     2.8163     1.7454 H            1    LIG   0.0000
  17 H            0.6707     2.7518     0.1136 H            1    LIG   0.0000
  18 H            2.5548     3.0683     0.9171 H            1    LIG   0.0000
  19 H            4.9524     3.0541     0.9203 H            1    LIG   0.0000
  20 H            4.9210    -1.0963     1.0844 H            1    LIG   0.0000
  21 H            1.4635    -1.5689    -0.8320 H            1    LIG   0.0000
  22 H            2.6563    -2.1395     3.0589 H            1    LIG   0.0000
@<TRIPOS>BOND
   1        1        2 1
   2        2        3 1
   3        3        4 ar
   4        4        5 ar
   5        5        6 ar
   6        6        7 1
   7        6        8 ar
   8        8        9 ar
   9        9        3 ar
  10        9       10 1
  11       10       11 1
  12       11       12 2
  13       12       13 1
  14       13       14 2
  15       14       10 1
  16        1       15 1
  17        1       16 1
  18        1       17 1
  19        4       18 1
  20        5       19 1
  21        8       20 1
  22       11       21 1
  23       14       22 1

@<TRIPOS>MOLECULE

  22   23
SMALL
USER_CHARGES
@<TRIPOS>ATOM
   1 C1           0.3887     2.2807     0.9494 C.3          1    LIG   0.0000
   2 O2           1.0000     1.0000     1.0000 O.3          1    LIG   0.0000
   3 C3           2.3502     1.0000     1.0000 C.ar         1    LIG   0.0000
   4 C4           3.0510     2.2008     0.9524 C.ar         1    LIG   0.0000
   5 C5           4.4423     2.1946     0.9539 C.ar         1    LIG   0.0000
   6 C6           5.1151     0.9781     1.0027 C.ar         1    LIG   0.0000
   7 Cl7          6.8946     0.9607     1.0051 Cl           1    LIG   0.0000
   8 C8           4.4249    -0.2288     1.0497 C.ar         1    LIG   0.0000
   9 C9           3.0344    -0.2102     1.0478 C.ar         1    LIG   0.0000
  10 N10          2.3255    -1.4159     1.0945 N.pl3        1    LIG   0.0000
  11 C11          1.0957    -1.6481     0.5517 C.2          1    LIG   0.0000
  12 N12          0.7837    -2.8998     0.8099 N.2          1    LIG   0.0000
  13 N13          1.7732    -3.4475     1.4992 N.2          1    LIG   0.0000
  14 C14          2.7313    -2.5715     1.6938 C.2          1    LIG   0.0000
  15 H           -0.6058     2.1757     0.9535 H            1    LIG   0.0000
  16 H            0.6707     2.8163     1.7454 H            1    LIG   0.0000
  17 H            0.6707     2.7518     0.1136 H            1    LIG   0.0000
  18 H            2.5548     3.0683     0.9171 H            1    LIG   0.0000
  19 H            4.9524     3.0541     0.9203 H            1    LIG   0.0000
  20 H            4.9210    -1.0963     1.0844 H            1    LIG   0.0000
  21 H            0.5352    -0.9890     0.0503 H            1    LIG   0.0000
  22 H            3.5894    -2.7220     2.1846 H            1    LIG   0.0000
@<TRIPOS>BOND
   1        1        2 1
   2        2        3 1
   3        3        4 ar
   4        4        5 ar
   5        5        6 ar
   6        6        7 1
   7        6        8 ar
   8        8        9 ar
   9        9        3 ar
  10        9       10 1
  11       10       11 1
  12       11       12 2
  13       12       13 1
  14       13       14 2
  15       14       10 1
  16        1       15 1
  17        1       16 1
  18        1       17 1
  19        4       18 1
  20        5       19 1
  21        8       20 1
  22       11       21 1
  23       14       22 1

@<TRIPOS>MOLECULE

  22   23
SMALL
USER_CHARGES
@<TRIPOS>ATOM
   1 C1           0.3887     2.2807     0.9494 C.3          1    LIG   0.0000
   2 O2           1.0000     1.0000     1.0000 O.3          1    LIG   0.0000
   3 C3           2.3502     1.0000     1.0000 C.ar         1    LIG   0.0000
   4 C4           3.0510     2.2008     0.9524 C.ar         1    LIG   0.0000
   5 C5           4.4423     2.1946     0.9539 C.ar         1    LIG   0.0000
   6 C6           5.1151     0.9781     1.0027 C.ar         1    LIG   0.0000
   7 Cl7          6.8946     0.9607     1.0051 Cl           1    LIG   0.0000
   8 C8           4.4249    -0.2288     1.0497 C.ar         1    LIG   0.0000
   9 C9           3.0344    -0.2102     1.0478 C.ar         1    LIG   0.0000
  10 N10          2.3255    -1.4159     1.0945 N.pl3        1    LIG   0.0000
  11 C11          1.3068    -1.7180     1.9501 C.2          1    LIG   0.0000
  12 N12          0.9094    -2.9404     1.6696 N.2          1    LIG   0.0000
  13 N13          1.6508    -3.4074     0.6763 N.2          1    LIG   0.0000
  14 C14          2.5273    -2.5056     0.3002 C.2          1    LIG   0.0000
  15 H           -0.6058     2.1757     0.9535 H            1    LIG   0.0000
  16 H            0.6707     2.8163     1.7454 H            1    LIG   0.0000
  17 H            0.6707     2.7518     0.1136 H            1    LIG   0.0000
  18 H            2.5548     3.0683     0.9171 H            1    LIG   0.0000
  19 H            4.9524     3.0541     0.9203 H            1    LIG   0.0000
  20 H            4.9210    -1.0963     1.0844 H            1    LIG   0.0000
  21 H            0.9316    -1.1209     2.6591 H            1    LIG   0.0000
  22 H            3.2087    -2.5993    -0.4257 H            1    LIG   0.0000
@<TRIPOS>BOND
   1        1        2 1
   2        2        3 1
   3        3        4 ar
   4        4        5 ar
   5        5        6 ar
   6        6        7 1
   7        6        8 ar
   8        8        9 ar
   9        9        3 ar
  10        9       10 1
  11       10       11 1
  12       11       12 2
  13       12       13 1
  14       13       14 2
  15       14       10 1
  16        1       15 1
  17        1       16 1
  18        1       17 1
  19        4       18 1
  20        5       19 1
  21        8       20 1
  22       11       21 1
  23       14       22 1

@<TRIPOS>MOLECULE

  22   23
SMALL
USER_CHARGES
@<TRIPOS>ATOM
   1 C1           0.3887     2.2807     0.9494 C.3          1    LIG   0.0000
   2 O2           1.0000     1.0000     1.0000 O.3          1    LIG   0.0000
   3 C3           2.3502     1.0000     1.0000 C.ar         1    LIG   0.0000
   4 C4           3.0510     2.2008     0.9524 C.ar         1    LIG   0.0000
   5 C5           4.4423     2.1946     0.9539 C.ar         1    LIG   0.0000
   6 C6           5.1151     0.9781     1.0027 C.ar         1    LIG   0.0000
   7 Cl7          6.8946     0.9607     1.0051 Cl           1    LIG   0.0000
   8 C8           4.4249    -0.2288     1.0497 C.ar         1    LIG   0.0000
   9 C9           3.0344    -0.2102     1.0478 C.ar         1    LIG   0.0000
  10 N10          2.3255    -1.4159     1.0945 N.pl3        1    LIG   0.0000
  11 C11          1.0950    -1.6050     1.6523 C.2          1    LIG   0.0000
  12 N12          0.7801    -2.8715     1.4859 N.2          1    LIG   0.0000
  13 N13          1.7750    -3.4736     0.8519 N.2          1    LIG   0.0000
  14 C14          2.7369    -2.6173     0.5980 C.2          1    LIG   0.0000
  15 H           -0.6058     2.1757     0.9535 H            1    LIG   0.0000
  16 H            0.6707     2.8163     1.7454 H            1    LIG   0.0000
  17 H            0.6707     2.7518     0.1136 H            1    LIG   0.0000
  18 H            2.5548     3.0683     0.9171 H            1    LIG   0.0000
  19 H            4.9524     3.0541     0.9203 H            1    LIG   0.0000
  20 H            4.9210    -1.0963     1.0844 H            1    LIG   0.0000
  21 H            0.5359    -0.9097     2.1039 H            1    LIG   0.0000
  22 H            3.6010    -2.8083     0.1323 H            1    LIG   0.0000
@<TRIPOS>BOND
   1        1        2 1
   2        2        3 1
   3        3        4 ar
   4        4        5 ar
   5        5        6 ar
   6        6        7 1
   7        6        8 ar
   8        8        9 ar
   9        9        3 ar
  10        9       10 1
  11       10       11 1
  12       11       12 2
  13       12       13 1
  14       13       14 2
  15       14       10 1
  16        1       15 1
  17        1       16 1
  18        1       17 1
  19        4       18 1
  20        5       19 1
  21        8       20 1
  22       11       21 1
  23       14       22 1

@<TRIPOS>MOLECULE

  22   23
SMALL
USER_CHARGES
@<TRIPOS>ATOM
   1 C1           0.3887     2.2807     0.9494 C.3          1    LIG   0.0000
   2 O2           1.0000     1.0000     1.0000 O.3          1    LIG   0.0000
   3 C3           2.3502     1.0000     1.0000 C.ar         1    LIG   0.0000
   4 C4           3.0510     2.2008     0.9524 C.ar         1    LIG   0.0000
   5 C5           4.4423     2.1946     0.9539 C.ar         1    LIG   0.0000
   6 C6           5.1151     0.9781     1.0027 C.ar         1    LIG   0.0000
   7 Cl7          6.8946     0.9607     1.0051 Cl           1    LIG   0.0000
   8 C8           4.4249    -0.2288     1.0497 C.ar         1    LIG   0.0000
   9 C9           3.0344    -0.2102     1.0478 C.ar         1    LIG   0.0000
  10 N10          2.3255    -1.4159     1.0945 N.pl3        1    LIG   0.0000
  11 C11          1.5923    -1.8782     2.1480 C.2          1    LIG   0.0000
  12 N12          1.0842    -3.0384     1.7923 N.2          1    LIG   0.0000
  13 N13          1.4830    -3.3133     0.5595 N.2          1    LIG   0.0000
  14 C14          2.2439    -2.3467     0.1015 C.2          1    LIG   0.0000
  15 H           -0.6058     2.1757     0.9535 H            1    LIG   0.0000
  16 H            0.6707     2.8163     1.7454 H            1    LIG   0.0000
  17 H            0.6707     2.7518     0.1136 H            1    LIG   0.0000
  18 H            2.5548     3.0683     0.9171 H            1    LIG   0.0000
  19 H            4.9524     3.0541     0.9203 H            1    LIG   0.0000
  20 H            4.9210    -1.0963     1.0844 H            1    LIG   0.0000
  21 H            1.4647    -1.4200     3.0276 H            1    LIG   0.0000
  22 H            2.6780    -2.3017    -0.7983 H            1    LIG   0.0000
@<TRIPOS>BOND
   1        1        2 1
   2        2        3 1
   3        3        4 ar
   4        4        5 ar
   5        5        6 ar
   6        6        7 1
   7        6        8 ar
   8        8        9 ar
   9        9        3 ar
  10        9       10 1
  11       10       11 1
  12       11       12 2
  13       12       13 1
  14       13       14 2
  15       14       10 1
  16        1       15 1
  17        1       16 1
  18        1       17 1
  19        4       18 1
  20        5       19 1
  21        8       20 1
  22       11       21 1
  23       14       22 1

@<TRIPOS>MOLECULE

  22   23
SMALL
USER_CHARGES
@<TRIPOS>ATOM
   1 C1           0.3887     2.2807     0.9494 C.3          1    LIG   0.0000
   2 O2           1.0000     1.0000     1.0000 O.3          1    LIG   0.0000
   3 C3           2.3502     1.0000     1.0000 C.ar         1    LIG   0.0000
   4 C4           3.0510     2.2008     0.9524 C.ar         1    LIG   0.0000
   5 C5           4.4423     2.1946     0.9539 C.ar         1    LIG   0.0000
   6 C6           5.1151     0.9781     1.0027 C.ar         1    LIG   0.0000
   7 Cl7          6.8946     0.9607     1.0051 Cl           1    LIG   0.0000
   8 C8           4.4249    -0.2288     1.0497 C.ar         1    LIG   0.0000
   9 C9           3.0344    -0.2102     1.0478 C.ar         1    LIG   0.0000
  10 N10          2.3255    -1.4159     1.0945 N.pl3        1    LIG   0.0000
  11 C11          2.3933    -2.4254     0.1795 C.2          1    LIG   0.0000
  12 N12          1.5819    -3.3777     0.5863 N.2          1    LIG   0.0000
  13 N13          1.0095    -2.9901     1.7161 N.2          1    LIG   0.0000
  14 C14          1.4375    -1.7968     2.0566 C.2          1    LIG   0.0000
  15 H           -0.6058     2.1757     0.9535 H            1    LIG   0.0000
  16 H            0.6707     2.8163     1.7454 H            1    LIG   0.0000
  17 H            0.6707     2.7518     0.1136 H            1    LIG   0.0000
  18 H            2.5548     3.0683     0.9171 H            1    LIG   0.0000
  19 H            4.9524     3.0541     0.9203 H            1    LIG   0.0000
  20 H            4.9210    -1.0963     1.0844 H            1    LIG   0.0000
  21 H            2.9556    -2.4390    -0.6474 H            1    LIG   0.0000
  22 H            1.1658    -1.2708     2.8625 H            1    LIG   0.0000
@<TRIPOS>BOND
   1        1        2 1
   2        2        3 1
   3        3        4 ar
   4        4        5 ar
   5        5        6 ar
   6        6        7 1
   7        6        8 ar
   8        8        9 ar
   9        9        3 ar
  10        9       10 1
  11       10       11 1
  12       11       12 2
  13       12       13 1
  14       13       14 2
  15       14       10 1
  16        1       15 1
  17        1       16 1
  18        1       17 1
  19        4       18 1
  20        5       19 1
  21        8       20 1
  22       11       21 1
  23       14       22 1

@<TRIPOS>MOLECULE

  22   23
SMALL
USER_CHARGES
@<TRIPOS>ATOM
   1 C1           0.3887     2.2807     0.9494 C.3          1    LIG   0.0000
   2 O2           1.0000     1.0000     1.0000 O.3          1    LIG   0.0000
   3 C3           2.3502     1.0000     1.0000 C.ar         1    LIG   0.0000
   4 C4           3.0510     2.2008     0.9524 C.ar         1    LIG   0.0000
   5 C5           4.4423     2.1946     0.9539 C.ar         1    LIG   0.0000
   6 C6           5.1151     0.9781     1.0027 C.ar         1    LIG   0.0000
   7 Cl7          6.8946     0.9607     1.0051 Cl           1    LIG   0.0000
   8 C8           4.4249    -0.2288     1.0497 C.ar         1    LIG   0.0000
   9 C9           3.0344    -0.2102     1.0478 C.ar         1    LIG   0.0000
  10 N10          2.3255    -1.4159     1.0945 N.pl3        1    LIG   0.0000
  11 C11          2.6458    -2.5641     0.4312 C.2          1    LIG   0.0000
  12 N12          1.7363    -3.4625     0.7418 N.2          1    LIG   0.0000
  13 N13          0.8612    -2.9087     1.5676 N.2          1    LIG   0.0000
  14 C14          1.1871    -1.6594     1.8045 C.2          1    LIG   0.0000
  15 H           -0.6058     2.1757     0.9535 H            1    LIG   0.0000
  16 H            0.6707     2.8163     1.7454 H            1    LIG   0.0000
  17 H            0.6707     2.7518     0.1136 H            1    LIG   0.0000
  18 H            2.5548     3.0683     0.9171 H            1    LIG   0.0000
  19 H            4.9524     3.0541     0.9203 H            1    LIG   0.0000
  20 H            4.9210    -1.0963     1.0844 H            1    LIG   0.0000
  21 H            3.4271    -2.6981    -0.1784 H            1    LIG   0.0000
  22 H            0.6972    -1.0136     2.3901 H            1    LIG   0.0000
@<TRIPOS>BOND
   1        1        2 1
   2        2        3 1
   3        3        4 ar
   4        4        5 ar
   5        5        6 ar
   6        6        7 1
   7        6        8 ar
   8        8        9 ar
   9        9        3 ar
  10        9       10 1
  11       10       11 1
  12       11       12 2
  13       12       13 1
  14       13       14 2
  15       14       10 1
  16        1       15 1
  17        1       16 1
  18        1       17 1
  19        4       18 1
  20        5       19 1
  21        8       20 1
  22       11       21 1
  23       14       22 1

@<TRIPOS>MOLECULE

  22   23
SMALL
USER_CHARGES
@<TRIPOS>ATOM
   1 C1           0.3887     2.2807     0.9494 C.3          1    LIG   0.0000
   2 O2           1.0000     1.0000     1.0000 O.3          1    LIG   0.0000
   3 C3           2.3502     1.0000     1.0000 C.ar         1    LIG   0.0000
   4 C4           3.0510     2.2008     0.9524 C.ar         1    LIG   0.0000
   5 C5           4.4423     2.1946     0.9539 C.ar         1    LIG   0.0000
   6 C6           5.1151     0.9781     1.0027 C.ar         1    LIG   0.0000
   7 Cl7          6.8946     0.9607     1.0051 Cl           1    LIG   0.0000
   8 C8           4.4249    -0.2288     1.0497 C.ar         1    LIG   0.0000
   9 C9           3.0344    -0.2102     1.0478 C.ar         1    LIG   0.0000
  10 N10          2.3255    -1.4159     1.0945 N.pl3        1    LIG   0.0000
  11 C11          1.9185    -2.1524     0.0208 C.2          1    LIG   0.0000
  12 N12          1.2907    -3.2104     0.4870 N.2          1    LIG   0.0000
  13 N13          1.2886    -3.1505     1.8102 N.2          1    LIG   0.0000
  14 C14          1.9095    -2.0681     2.2174 C.2          1    LIG   0.0000
  15 H           -0.6058     2.1757     0.9535 H            1    LIG   0.0000
  16 H            0.6707     2.8163     1.7454 H            1    LIG   0.0000
  17 H            0.6707     2.7518     0.1136 H            1    LIG   0.0000
  18 H            2.5548     3.0683     0.9171 H            1    LIG   0.0000
  19 H            4.9524     3.0541     0.9203 H            1    LIG   0.0000
  20 H            4.9210    -1.0963     1.0844 H            1    LIG   0.0000
  21 H            2.0695    -1.9295    -0.9423 H            1    LIG   0.0000
  22 H            2.0498    -1.7788     3.1643 H            1    LIG   0.0000
@<TRIPOS>BOND
   1        1        2 1
   2        2        3 1
   3        3        4 ar
   4        4        5 ar
   5        5        6 ar
   6        6        7 1
   7        6        8 ar
   8        8        9 ar
   9        9        3 ar
  10        9       10 1
  11       10       11 1
  12       11       12 2
  13       12       13 1
  14       13       14 2
  15       14       10 1
  16        1       15 1
  17        1       16 1
  18        1       17 1
  19        4       18 1
  20        5       19 1
  21        8       20 1
  22       11       21 1
  23       14       22 1

@<TRIPOS>MOLECULE

  22   23
SMALL
USER_CHARGES
@<TRIPOS>ATOM
   1 C1           0.3887     2.2807     0.9494 C.3          1    LIG   0.0000
   2 O2           1.0000     1.0000     1.0000 O.3          1    LIG   0.0000
   3 C3           2.3502     1.0000     1.0000 C.ar         1    LIG   0.0000
   4 C4           3.0510     2.2008     0.9524 C.ar         1    LIG   0.0000
   5 C5           4.4423     2.1946     0.9539 C.ar         1    LIG   0.0000
   6 C6           5.1151     0.9781     1.0027 C.ar         1    LIG   0.0000
   7 Cl7          6.8946     0.9607     1.0051 Cl           1    LIG   0.0000
   8 C8           4.4249    -0.2288     1.0497 C.ar         1    LIG   0.0000
   9 C9           3.0344    -0.2102     1.0478 C.ar         1    LIG   0.0000
  10 N10          2.3255    -1.4159     1.0945 N.pl3        1    LIG   0.0000
  11 C11          2.3920    -2.3508     2.0858 C.2          1    LIG   0.0000
  12 N12          1.5757    -3.3287     1.7571 N.2          1    LIG   0.0000
  13 N13          1.0125    -3.0353     0.5948 N.2          1    LIG   0.0000
  14 C14          1.4472    -1.8761     0.1586 C.2          1    LIG   0.0000
  15 H           -0.6058     2.1757     0.9535 H            1    LIG   0.0000
  16 H            0.6707     2.8163     1.7454 H            1    LIG   0.0000
  17 H            0.6707     2.7518     0.1136 H            1    LIG   0.0000
  18 H            2.5548     3.0683     0.9171 H            1    LIG   0.0000
  19 H            4.9524     3.0541     0.9203 H            1    LIG   0.0000
  20 H            4.9210    -1.0963     1.0844 H            1    LIG   0.0000
  21 H            2.9567    -2.3018     2.9097 H            1    LIG   0.0000
  22 H            1.1858    -1.4203    -0.6923 H            1    LIG   0.0000
@<TRIPOS>BOND
   1        1        2 1
   2        2        3 1
   3        3        4 ar
   4        4        5 ar
   5        5        6 ar
   6        6        7 1
   7        6        8 ar
   8        8        9 ar
   9        9        3 ar
  10        9       10 1
  11       10       11 1
  12       11       12 2
  13       12       13 1
  14       13       14 2
  15       14       10 1
  16        1       15 1
  17        1       16 1
  18        1       17 1
  19        4       18 1
  20        5       19 1
  21        8       20 1
  22       11       21 1
  23       14       22 1

@<TRIPOS>MOLECULE

  22   23
SMALL
USER_CHARGES
@<TRIPOS>ATOM
   1 C1           0.3887     2.2807     0.9494 C.3          1    LIG   0.0000
   2 O2           1.0000     1.0000     1.0000 O.3          1    LIG   0.0000
   3 C3           2.3502     1.0000     1.0000 C.ar         1    LIG   0.0000
   4 C4           3.0510     2.2008     0.9524 C.ar         1    LIG   0.0000
   5 C5           4.4423     2.1946     0.9539 C.ar         1    LIG   0.0000
   6 C6           5.1151     0.9781     1.0027 C.ar         1    LIG   0.0000
   7 Cl7          6.8946     0.9607     1.0051 Cl           1    LIG   0.0000
   8 C8           4.4249    -0.2288     1.0497 C.ar         1    LIG   0.0000
   9 C9           3.0344    -0.2102     1.0478 C.ar         1    LIG   0.0000
  10 N10          2.3255    -1.4159     1.0945 N.pl3        1    LIG   0.0000
  11 C11          2.6448    -2.5087     1.8461 C.2          1    LIG   0.0000
  12 N12          1.7317    -3.4261     1.6108 N.2          1    LIG   0.0000
  13 N13          0.8635    -2.9422     0.7353 N.2          1    LIG   0.0000
  14 C14          1.1944    -1.7182     0.3957 C.2          1    LIG   0.0000
  15 H           -0.6058     2.1757     0.9535 H            1    LIG   0.0000
  16 H            0.6707     2.8163     1.7454 H            1    LIG   0.0000
  17 H            0.6707     2.7518     0.1136 H            1    LIG   0.0000
  18 H            2.5548     3.0683     0.9171 H            1    LIG   0.0000
  19 H            4.9524     3.0541     0.9203 H            1    LIG   0.0000
  20 H            4.9210    -1.0963     1.0844 H            1    LIG   0.0000
  21 H            3.4280    -2.5963     2.4618 H            1    LIG   0.0000
  22 H            0.7120    -1.1246    -0.2484 H            1    LIG   0.0000
@<TRIPOS>BOND
   1        1        2 1
   2        2        3 1
   3        3        4 ar
   4        4        5 ar
   5        5        6 ar
   6        6        7 1
   7        6        8 ar
   8        8        9 ar
   9        9        3 ar
  10        9       10 1
  11       10       11 1
  12       11       12 2
  13       12       13 1
  14       13       14 2
  15       14       10 1
  16        1       15 1
  17        1       16 1
  18        1       17 1
  19        4       18 1
  20        5       19 1
  21        8       20 1
  22       11       21 1
  23       14       22 1

