@<TRIPOS>MOLECULE
*****
 22 23 0 0 0
SMALL
USER_CHARGES

@<TRIPOS>ATOM
      1 C1          0.3887    2.2807    0.9494 C.3     1  LIG1        0.0000
      2 O2          1.0000    1.0000    1.0000 O.3     1  LIG1        0.0000
      3 C3          2.3502    1.0000    1.0000 C.ar    1  LIG1        0.0000
      4 C4          3.0510    2.2008    0.9524 C.ar    1  LIG1        0.0000
      5 C5          4.4423    2.1946    0.9539 C.ar    1  LIG1        0.0000
      6 C6          5.1151    0.9781    1.0027 C.ar    1  LIG1        0.0000
      7 Cl7         6.8946    0.9607    1.0051 Cl      1  LIG1        0.0000
      8 C8          4.4249   -0.2288    1.0497 C.ar    1  LIG1        0.0000
      9 C9          3.0344   -0.2102    1.0478 C.ar    1  LIG1        0.0000
     10 N10         2.3255   -1.4159    1.0945 N.pl3   1  LIG1        0.0000
     11 C11         2.6458   -2.5641    0.4312 C.2     1  LIG1        0.0000
     12 N12         1.7363   -3.4625    0.7418 N.2     1  LIG1        0.0000
     13 N13         0.8612   -2.9087    1.5676 N.2     1  LIG1        0.0000
     14 C14         1.1871   -1.6594    1.8045 C.2     1  LIG1        0.0000
     15 H          -0.6058    2.1757    0.9535 H       1  LIG1        0.0000
     16 H           0.6707    2.8163    1.7454 H       1  LIG1        0.0000
     17 H           0.6707    2.7518    0.1136 H       1  LIG1        0.0000
     18 H           2.5548    3.0683    0.9171 H       1  LIG1        0.0000
     19 H           4.9524    3.0541    0.9203 H       1  LIG1        0.0000
     20 H           4.9210   -1.0963    1.0844 H       1  LIG1        0.0000
     21 H           3.4271   -2.6981   -0.1784 H       1  LIG1        0.0000
     22 H           0.6972   -1.0136    2.3901 H       1  LIG1        0.0000
@<TRIPOS>BOND
     1     1     2    1
     2     2     3    1
     3     3     4   ar
     4     4     5   ar
     5     5     6   ar
     6     6     7    1
     7     6     8   ar
     8     8     9   ar
     9     9     3   ar
    10     9    10    1
    11    10    11    1
    12    11    12    2
    13    12    13    1
    14    13    14    2
    15    14    10    1
    16     1    15    1
    17     1    16    1
    18     1    17    1
    19     4    18    1
    20     5    19    1
    21     8    20    1
    22    11    21    1
    23    14    22    1
