@<TRIPOS>MOLECULE

  33   35
SMALL
USER_CHARGES
@<TRIPOS>ATOM
   1 C1           0.6762     3.9711     1.3850 C.3          1    LIG   0.0000
   2 N2           1.7126     3.1423     2.0185 N.pl3        1    LIG   0.0000
   3 C3           2.6702     3.6110     2.8709 C.2          1    LIG   0.0000
   4 C4           3.4404     2.5550     3.2476 C.2          1    LIG   0.0000
   5 C5           2.9100     1.4250     2.5863 C.2          1    LIG   0.0000
   6 O6           3.3264     0.2829     2.6620 O.2          1    LIG   0.0000
   7 N7           1.8489     1.8489     1.8489 N.pl3        1    LIG   0.0000
   8 C8           1.0000     1.0000     1.0000 C.3          1    LIG   0.0000
   9 C9           1.5775     0.9500    -0.4051 C.3          1    LIG   0.0000
  10 C10          0.7000     0.0724    -1.2827 C.3          1    LIG   0.0000
  11 C11          1.4251    -1.1633    -1.7354 C.3          1    LIG   0.0000
  12 C12          1.2083    -0.0261    -2.6917 C.3          1    LIG   0.0000
  13 C13          0.1033    -0.3697    -3.6721 C.3          1    LIG   0.0000
  14 C14          0.4285    -0.5091    -5.1266 C.3          1    LIG   0.0000
  15 C15          0.1389    -1.7339    -4.3010 C.3          1    LIG   0.0000
  16 H           -0.2841     0.0307    -1.1100 H            1    LIG   0.0000
  17 H            1.9817     0.5355    -2.9855 H            1    LIG   0.0000
  18 H            0.7866     4.9219     1.6744 H            1    LIG   0.0000
  19 H            0.7647     3.9129     0.3906 H            1    LIG   0.0000
  20 H           -0.2275     3.6420     1.6590 H            1    LIG   0.0000
  21 H            2.7849     4.5597     3.1654 H            1    LIG   0.0000
  22 H            4.2244     2.5746     3.8680 H            1    LIG   0.0000
  23 H            0.0756     1.3800     0.9671 H            1    LIG   0.0000
  24 H            0.9671     0.0756     1.3800 H            1    LIG   0.0000
  25 H            1.6104     1.8744    -0.7851 H            1    LIG   0.0000
  26 H            2.5020     0.5700    -0.3722 H            1    LIG   0.0000
  27 H            2.3432    -1.3588    -1.3909 H            1    LIG   0.0000
  28 H            0.9248    -2.0206    -1.8563 H            1    LIG   0.0000
  29 H           -0.8038    -0.0081    -3.4569 H            1    LIG   0.0000
  30 H            1.3581    -0.3327    -5.4501 H            1    LIG   0.0000
  31 H           -0.2280    -0.2049    -5.8169 H            1    LIG   0.0000
  32 H           -0.7104    -2.2430    -4.4411 H            1    LIG   0.0000
  33 H            0.8758    -2.3708    -4.0743 H            1    LIG   0.0000
@<TRIPOS>BOND
   1        1        2 1
   2        2        3 1
   3        3        4 2
   4        4        5 1
   5        5        6 2
   6        5        7 1
   7        7        2 1
   8        7        8 1
   9        8        9 1
  10        9       10 1
  11       10       11 1
  12       11       12 1
  13       12       10 1
  14       12       13 1
  15       13       14 1
  16       14       15 1
  17       15       13 1
  18       10       16 1
  19       12       17 1
  20        1       18 1
  21        1       19 1
  22        1       20 1
  23        3       21 1
  24        4       22 1
  25        8       23 1
  26        8       24 1
  27        9       25 1
  28        9       26 1
  29       11       27 1
  30       11       28 1
  31       13       29 1
  32       14       30 1
  33       14       31 1
  34       15       32 1
  35       15       33 1

@<TRIPOS>MOLECULE

  33   35
SMALL
USER_CHARGES
@<TRIPOS>ATOM
   1 C1           0.6762     3.9711     1.3850 C.3          1    LIG   0.0000
   2 N2           1.7126     3.1423     2.0185 N.pl3        1    LIG   0.0000
   3 C3           2.6702     3.6110     2.8709 C.2          1    LIG   0.0000
   4 C4           3.4404     2.5550     3.2476 C.2          1    LIG   0.0000
   5 C5           2.9100     1.4250     2.5863 C.2          1    LIG   0.0000
   6 O6           3.3264     0.2829     2.6620 O.2          1    LIG   0.0000
   7 N7           1.8489     1.8489     1.8489 N.pl3        1    LIG   0.0000
   8 C8           1.0000     1.0000     1.0000 C.3          1    LIG   0.0000
   9 C9           1.5775     0.9500    -0.4051 C.3          1    LIG   0.0000
  10 C10          0.7000     0.0724    -1.2827 C.3          1    LIG   0.0000
  11 C11          1.4251    -1.1633    -1.7354 C.3          1    LIG   0.0000
  12 C12          1.2083    -0.0261    -2.6917 C.3          1    LIG   0.0000
  13 C13          0.1033    -0.3697    -3.6721 C.3          1    LIG   0.0000
  14 C14         -1.0697     0.5501    -3.8092 C.3          1    LIG   0.0000
  15 C15         -0.0278     0.4948    -4.8941 C.3          1    LIG   0.0000
  16 H           -0.2841     0.0307    -1.1100 H            1    LIG   0.0000
  17 H            1.9817     0.5355    -2.9855 H            1    LIG   0.0000
  18 H            0.7866     4.9219     1.6744 H            1    LIG   0.0000
  19 H            0.7647     3.9129     0.3906 H            1    LIG   0.0000
  20 H           -0.2275     3.6420     1.6590 H            1    LIG   0.0000
  21 H            2.7849     4.5597     3.1654 H            1    LIG   0.0000
  22 H            4.2244     2.5746     3.8680 H            1    LIG   0.0000
  23 H            0.0756     1.3800     0.9671 H            1    LIG   0.0000
  24 H            0.9671     0.0756     1.3800 H            1    LIG   0.0000
  25 H            1.6104     1.8744    -0.7851 H            1    LIG   0.0000
  26 H            2.5020     0.5700    -0.3722 H            1    LIG   0.0000
  27 H            2.3432    -1.3588    -1.3909 H            1    LIG   0.0000
  28 H            0.9248    -2.0206    -1.8563 H            1    LIG   0.0000
  29 H           -0.0841    -1.3436    -3.8001 H            1    LIG   0.0000
  30 H           -1.1414     1.3591    -3.2257 H            1    LIG   0.0000
  31 H           -1.9823     0.1753    -3.9729 H            1    LIG   0.0000
  32 H           -0.2469     0.0821    -5.7783 H            1    LIG   0.0000
  33 H            0.5939     1.2659    -5.0311 H            1    LIG   0.0000
@<TRIPOS>BOND
   1        1        2 1
   2        2        3 1
   3        3        4 2
   4        4        5 1
   5        5        6 2
   6        5        7 1
   7        7        2 1
   8        7        8 1
   9        8        9 1
  10        9       10 1
  11       10       11 1
  12       11       12 1
  13       12       10 1
  14       12       13 1
  15       13       14 1
  16       14       15 1
  17       15       13 1
  18       10       16 1
  19       12       17 1
  20        1       18 1
  21        1       19 1
  22        1       20 1
  23        3       21 1
  24        4       22 1
  25        8       23 1
  26        8       24 1
  27        9       25 1
  28        9       26 1
  29       11       27 1
  30       11       28 1
  31       13       29 1
  32       14       30 1
  33       14       31 1
  34       15       32 1
  35       15       33 1

@<TRIPOS>MOLECULE

  33   35
SMALL
USER_CHARGES
@<TRIPOS>ATOM
   1 C1           0.6762     3.9711     1.3850 C.3          1    LIG   0.0000
   2 N2           1.7126     3.1423     2.0185 N.pl3        1    LIG   0.0000
   3 C3           2.6702     3.6110     2.8709 C.2          1    LIG   0.0000
   4 C4           3.4404     2.5550     3.2476 C.2          1    LIG   0.0000
   5 C5           2.9100     1.4250     2.5863 C.2          1    LIG   0.0000
   6 O6           3.3264     0.2829     2.6620 O.2          1    LIG   0.0000
   7 N7           1.8489     1.8489     1.8489 N.pl3        1    LIG   0.0000
   8 C8           1.0000     1.0000     1.0000 C.3          1    LIG   0.0000
   9 C9           1.5775     0.9500    -0.4051 C.3          1    LIG   0.0000
  10 C10          0.7000     0.0724    -1.2827 C.3          1    LIG   0.0000
  11 C11          0.2473     0.7975    -2.5184 C.3          1    LIG   0.0000
  12 C12         -0.7090     0.5807    -1.3812 C.3          1    LIG   0.0000
  13 C13         -1.6894    -0.5243    -1.7248 C.3          1    LIG   0.0000
  14 C14         -3.1439    -0.1991    -1.8642 C.3          1    LIG   0.0000
  15 C15         -2.3183    -0.4887    -3.0890 C.3          1    LIG   0.0000
  16 H            0.8727    -0.9116    -1.3244 H            1    LIG   0.0000
  17 H           -1.0029     1.3542    -0.8196 H            1    LIG   0.0000
  18 H            0.7866     4.9219     1.6744 H            1    LIG   0.0000
  19 H            0.7647     3.9129     0.3906 H            1    LIG   0.0000
  20 H           -0.2275     3.6420     1.6590 H            1    LIG   0.0000
  21 H            2.7849     4.5597     3.1654 H            1    LIG   0.0000
  22 H            4.2244     2.5746     3.8680 H            1    LIG   0.0000
  23 H            0.0756     1.3800     0.9671 H            1    LIG   0.0000
  24 H            0.9671     0.0756     1.3800 H            1    LIG   0.0000
  25 H            1.6104     1.8744    -0.7851 H            1    LIG   0.0000
  26 H            2.5020     0.5700    -0.3722 H            1    LIG   0.0000
  27 H            0.5918     1.7157    -2.7139 H            1    LIG   0.0000
  28 H            0.1264     0.2972    -3.3757 H            1    LIG   0.0000
  29 H           -1.4742    -1.4314    -1.3632 H            1    LIG   0.0000
  30 H           -3.4674     0.7306    -1.6878 H            1    LIG   0.0000
  31 H           -3.8343    -0.8555    -1.5600 H            1    LIG   0.0000
  32 H           -2.4585    -1.3379    -3.5981 H            1    LIG   0.0000
  33 H           -2.0916     0.2482    -3.7259 H            1    LIG   0.0000
@<TRIPOS>BOND
   1        1        2 1
   2        2        3 1
   3        3        4 2
   4        4        5 1
   5        5        6 2
   6        5        7 1
   7        7        2 1
   8        7        8 1
   9        8        9 1
  10        9       10 1
  11       10       11 1
  12       11       12 1
  13       12       10 1
  14       12       13 1
  15       13       14 1
  16       14       15 1
  17       15       13 1
  18       10       16 1
  19       12       17 1
  20        1       18 1
  21        1       19 1
  22        1       20 1
  23        3       21 1
  24        4       22 1
  25        8       23 1
  26        8       24 1
  27        9       25 1
  28        9       26 1
  29       11       27 1
  30       11       28 1
  31       13       29 1
  32       14       30 1
  33       14       31 1
  34       15       32 1
  35       15       33 1

@<TRIPOS>MOLECULE

  33   35
SMALL
USER_CHARGES
@<TRIPOS>ATOM
   1 C1           0.6762     3.9711     1.3850 C.3          1    LIG   0.0000
   2 N2           1.7126     3.1423     2.0185 N.pl3        1    LIG   0.0000
   3 C3           2.6702     3.6110     2.8709 C.2          1    LIG   0.0000
   4 C4           3.4404     2.5550     3.2476 C.2          1    LIG   0.0000
   5 C5           2.9100     1.4250     2.5863 C.2          1    LIG   0.0000
   6 O6           3.3264     0.2829     2.6620 O.2          1    LIG   0.0000
   7 N7           1.8489     1.8489     1.8489 N.pl3        1    LIG   0.0000
   8 C8           1.0000     1.0000     1.0000 C.3          1    LIG   0.0000
   9 C9           1.5775     0.9500    -0.4051 C.3          1    LIG   0.0000
  10 C10          0.7000     0.0724    -1.2827 C.3          1    LIG   0.0000
  11 C11          0.2473     0.7975    -2.5184 C.3          1    LIG   0.0000
  12 C12         -0.7090     0.5807    -1.3812 C.3          1    LIG   0.0000
  13 C13         -1.6894    -0.5243    -1.7248 C.3          1    LIG   0.0000
  14 C14         -1.8265    -1.6973    -0.8050 C.3          1    LIG   0.0000
  15 C15         -2.9114    -0.6554    -0.8603 C.3          1    LIG   0.0000
  16 H            0.8727    -0.9116    -1.3244 H            1    LIG   0.0000
  17 H           -1.0029     1.3542    -0.8196 H            1    LIG   0.0000
  18 H            0.7866     4.9219     1.6744 H            1    LIG   0.0000
  19 H            0.7647     3.9129     0.3906 H            1    LIG   0.0000
  20 H           -0.2275     3.6420     1.6590 H            1    LIG   0.0000
  21 H            2.7849     4.5597     3.1654 H            1    LIG   0.0000
  22 H            4.2244     2.5746     3.8680 H            1    LIG   0.0000
  23 H            0.0756     1.3800     0.9671 H            1    LIG   0.0000
  24 H            0.9671     0.0756     1.3800 H            1    LIG   0.0000
  25 H            1.6104     1.8744    -0.7851 H            1    LIG   0.0000
  26 H            2.5020     0.5700    -0.3722 H            1    LIG   0.0000
  27 H            0.5918     1.7157    -2.7139 H            1    LIG   0.0000
  28 H            0.1264     0.2972    -3.3757 H            1    LIG   0.0000
  29 H           -1.8174    -0.7116    -2.6987 H            1    LIG   0.0000
  30 H           -1.2431    -1.7690     0.0040 H            1    LIG   0.0000
  31 H           -1.9903    -2.6098    -1.1798 H            1    LIG   0.0000
  32 H           -3.7956    -0.8745    -1.2730 H            1    LIG   0.0000
  33 H           -3.0484    -0.0336    -0.0892 H            1    LIG   0.0000
@<TRIPOS>BOND
   1        1        2 1
   2        2        3 1
   3        3        4 2
   4        4        5 1
   5        5        6 2
   6        5        7 1
   7        7        2 1
   8        7        8 1
   9        8        9 1
  10        9       10 1
  11       10       11 1
  12       11       12 1
  13       12       10 1
  14       12       13 1
  15       13       14 1
  16       14       15 1
  17       15       13 1
  18       10       16 1
  19       12       17 1
  20        1       18 1
  21        1       19 1
  22        1       20 1
  23        3       21 1
  24        4       22 1
  25        8       23 1
  26        8       24 1
  27        9       25 1
  28        9       26 1
  29       11       27 1
  30       11       28 1
  31       13       29 1
  32       14       30 1
  33       14       31 1
  34       15       32 1
  35       15       33 1

@<TRIPOS>MOLECULE

  33   35
SMALL
USER_CHARGES
@<TRIPOS>ATOM
   1 C1           0.6762     3.9711     1.3850 C.3          1    LIG   0.0000
   2 N2           1.7126     3.1423     2.0185 N.pl3        1    LIG   0.0000
   3 C3           2.6702     3.6110     2.8709 C.2          1    LIG   0.0000
   4 C4           3.4404     2.5550     3.2476 C.2          1    LIG   0.0000
   5 C5           2.9100     1.4250     2.5863 C.2          1    LIG   0.0000
   6 O6           3.3264     0.2829     2.6620 O.2          1    LIG   0.0000
   7 N7           1.8489     1.8489     1.8489 N.pl3        1    LIG   0.0000
   8 C8           1.0000     1.0000     1.0000 C.3          1    LIG   0.0000
   9 C9           1.5775     0.9500    -0.4051 C.3          1    LIG   0.0000
  10 C10          0.7000     0.0724    -1.2827 C.3          1    LIG   0.0000
  11 C11         -0.5357    -0.3803    -0.5576 C.3          1    LIG   0.0000
  12 C12          0.6014    -1.3366    -0.7744 C.3          1    LIG   0.0000
  13 C13          0.2579    -2.3170    -1.8794 C.3          1    LIG   0.0000
  14 C14          0.1185    -3.7715    -1.5542 C.3          1    LIG   0.0000
  15 C15         -1.1064    -2.9459    -1.8438 C.3          1    LIG   0.0000
  16 H            0.6582     0.2451    -2.2667 H            1    LIG   0.0000
  17 H            1.1630    -1.6304    -0.0009 H            1    LIG   0.0000
  18 H            0.7866     4.9219     1.6744 H            1    LIG   0.0000
  19 H            0.7647     3.9129     0.3906 H            1    LIG   0.0000
  20 H           -0.2275     3.6420     1.6590 H            1    LIG   0.0000
  21 H            2.7849     4.5597     3.1654 H            1    LIG   0.0000
  22 H            4.2244     2.5746     3.8680 H            1    LIG   0.0000
  23 H            0.0756     1.3800     0.9671 H            1    LIG   0.0000
  24 H            0.9671     0.0756     1.3800 H            1    LIG   0.0000
  25 H            1.6104     1.8744    -0.7851 H            1    LIG   0.0000
  26 H            2.5020     0.5700    -0.3722 H            1    LIG   0.0000
  27 H           -0.7313    -0.0358     0.3606 H            1    LIG   0.0000
  28 H           -1.3931    -0.5012    -1.0579 H            1    LIG   0.0000
  29 H            0.6195    -2.1018    -2.7865 H            1    LIG   0.0000
  30 H            0.2949    -4.0950    -0.6245 H            1    LIG   0.0000
  31 H            0.4226    -4.4618    -2.2106 H            1    LIG   0.0000
  32 H           -1.6155    -3.0860    -2.6930 H            1    LIG   0.0000
  33 H           -1.7432    -2.7192    -1.1069 H            1    LIG   0.0000
@<TRIPOS>BOND
   1        1        2 1
   2        2        3 1
   3        3        4 2
   4        4        5 1
   5        5        6 2
   6        5        7 1
   7        7        2 1
   8        7        8 1
   9        8        9 1
  10        9       10 1
  11       10       11 1
  12       11       12 1
  13       12       10 1
  14       12       13 1
  15       13       14 1
  16       14       15 1
  17       15       13 1
  18       10       16 1
  19       12       17 1
  20        1       18 1
  21        1       19 1
  22        1       20 1
  23        3       21 1
  24        4       22 1
  25        8       23 1
  26        8       24 1
  27        9       25 1
  28        9       26 1
  29       11       27 1
  30       11       28 1
  31       13       29 1
  32       14       30 1
  33       14       31 1
  34       15       32 1
  35       15       33 1

@<TRIPOS>MOLECULE

  33   35
SMALL
USER_CHARGES
@<TRIPOS>ATOM
   1 C1           0.6762     3.9711     1.3850 C.3          1    LIG   0.0000
   2 N2           1.7126     3.1423     2.0185 N.pl3        1    LIG   0.0000
   3 C3           2.6702     3.6110     2.8709 C.2          1    LIG   0.0000
   4 C4           3.4404     2.5550     3.2476 C.2          1    LIG   0.0000
   5 C5           2.9100     1.4250     2.5863 C.2          1    LIG   0.0000
   6 O6           3.3264     0.2829     2.6620 O.2          1    LIG   0.0000
   7 N7           1.8489     1.8489     1.8489 N.pl3        1    LIG   0.0000
   8 C8           1.0000     1.0000     1.0000 C.3          1    LIG   0.0000
   9 C9           1.5775     0.9500    -0.4051 C.3          1    LIG   0.0000
  10 C10          0.7000     0.0724    -1.2827 C.3          1    LIG   0.0000
  11 C11         -0.5357    -0.3803    -0.5576 C.3          1    LIG   0.0000
  12 C12          0.6014    -1.3366    -0.7744 C.3          1    LIG   0.0000
  13 C13          0.2579    -2.3170    -1.8794 C.3          1    LIG   0.0000
  14 C14          1.1776    -2.4540    -3.0524 C.3          1    LIG   0.0000
  15 C15          1.1223    -3.5390    -2.0105 C.3          1    LIG   0.0000
  16 H            0.6582     0.2451    -2.2667 H            1    LIG   0.0000
  17 H            1.1630    -1.6304    -0.0009 H            1    LIG   0.0000
  18 H            0.7866     4.9219     1.6744 H            1    LIG   0.0000
  19 H            0.7647     3.9129     0.3906 H            1    LIG   0.0000
  20 H           -0.2275     3.6420     1.6590 H            1    LIG   0.0000
  21 H            2.7849     4.5597     3.1654 H            1    LIG   0.0000
  22 H            4.2244     2.5746     3.8680 H            1    LIG   0.0000
  23 H            0.0756     1.3800     0.9671 H            1    LIG   0.0000
  24 H            0.9671     0.0756     1.3800 H            1    LIG   0.0000
  25 H            1.6104     1.8744    -0.7851 H            1    LIG   0.0000
  26 H            2.5020     0.5700    -0.3722 H            1    LIG   0.0000
  27 H           -0.7313    -0.0358     0.3606 H            1    LIG   0.0000
  28 H           -1.3931    -0.5012    -1.0579 H            1    LIG   0.0000
  29 H           -0.7161    -2.4450    -2.0667 H            1    LIG   0.0000
  30 H            1.9866    -1.8706    -3.1241 H            1    LIG   0.0000
  31 H            0.8029    -2.6178    -3.9649 H            1    LIG   0.0000
  32 H            0.7097    -4.4231    -2.2296 H            1    LIG   0.0000
  33 H            1.8935    -3.6760    -1.3887 H            1    LIG   0.0000
@<TRIPOS>BOND
   1        1        2 1
   2        2        3 1
   3        3        4 2
   4        4        5 1
   5        5        6 2
   6        5        7 1
   7        7        2 1
   8        7        8 1
   9        8        9 1
  10        9       10 1
  11       10       11 1
  12       11       12 1
  13       12       10 1
  14       12       13 1
  15       13       14 1
  16       14       15 1
  17       15       13 1
  18       10       16 1
  19       12       17 1
  20        1       18 1
  21        1       19 1
  22        1       20 1
  23        3       21 1
  24        4       22 1
  25        8       23 1
  26        8       24 1
  27        9       25 1
  28        9       26 1
  29       11       27 1
  30       11       28 1
  31       13       29 1
  32       14       30 1
  33       14       31 1
  34       15       32 1
  35       15       33 1

@<TRIPOS>MOLECULE

  33   35
SMALL
USER_CHARGES
@<TRIPOS>ATOM
   1 C1           3.3453     0.0504     2.6365 C.3          1    LIG   0.0000
   2 N2           2.8697     1.4400     2.5637 N.pl3        1    LIG   0.0000
   3 C3           3.4312     2.4904     3.2305 C.2          1    LIG   0.0000
   4 C4           2.7216     3.6070     2.9144 C.2          1    LIG   0.0000
   5 C5           1.7042     3.1892     2.0279 C.2          1    LIG   0.0000
   6 O6           0.8545     3.8980     1.5188 O.2          1    LIG   0.0000
   7 N7           1.8489     1.8489     1.8489 N.pl3        1    LIG   0.0000
   8 C8           1.0000     1.0000     1.0000 C.3          1    LIG   0.0000
   9 C9           1.5775     0.9500    -0.4051 C.3          1    LIG   0.0000
  10 C10          0.7000     0.0724    -1.2827 C.3          1    LIG   0.0000
  11 C11          1.4251    -1.1633    -1.7354 C.3          1    LIG   0.0000
  12 C12          1.2083    -0.0261    -2.6917 C.3          1    LIG   0.0000
  13 C13          0.1033    -0.3697    -3.6721 C.3          1    LIG   0.0000
  14 C14          0.4285    -0.5091    -5.1266 C.3          1    LIG   0.0000
  15 C15          0.1389    -1.7339    -4.3010 C.3          1    LIG   0.0000
  16 H           -0.2841     0.0307    -1.1100 H            1    LIG   0.0000
  17 H            1.9817     0.5355    -2.9855 H            1    LIG   0.0000
  18 H            4.1353     0.0001     3.2475 H            1    LIG   0.0000
  19 H            2.6141    -0.5342     2.9882 H            1    LIG   0.0000
  20 H            3.6098    -0.2596     1.7234 H            1    LIG   0.0000
  21 H            4.2218     2.4469     3.8413 H            1    LIG   0.0000
  22 H            2.8870     4.5368     3.2433 H            1    LIG   0.0000
  23 H            0.0756     1.3800     0.9671 H            1    LIG   0.0000
  24 H            0.9671     0.0756     1.3800 H            1    LIG   0.0000
  25 H            1.6104     1.8744    -0.7851 H            1    LIG   0.0000
  26 H            2.5020     0.5700    -0.3722 H            1    LIG   0.0000
  27 H            2.3432    -1.3588    -1.3909 H            1    LIG   0.0000
  28 H            0.9248    -2.0206    -1.8563 H            1    LIG   0.0000
  29 H           -0.8038    -0.0081    -3.4569 H            1    LIG   0.0000
  30 H            1.3581    -0.3327    -5.4501 H            1    LIG   0.0000
  31 H           -0.2280    -0.2049    -5.8169 H            1    LIG   0.0000
  32 H           -0.7104    -2.2430    -4.4411 H            1    LIG   0.0000
  33 H            0.8758    -2.3708    -4.0743 H            1    LIG   0.0000
@<TRIPOS>BOND
   1        1        2 1
   2        2        3 1
   3        3        4 2
   4        4        5 1
   5        5        6 2
   6        5        7 1
   7        7        2 1
   8        7        8 1
   9        8        9 1
  10        9       10 1
  11       10       11 1
  12       11       12 1
  13       12       10 1
  14       12       13 1
  15       13       14 1
  16       14       15 1
  17       15       13 1
  18       10       16 1
  19       12       17 1
  20        1       18 1
  21        1       19 1
  22        1       20 1
  23        3       21 1
  24        4       22 1
  25        8       23 1
  26        8       24 1
  27        9       25 1
  28        9       26 1
  29       11       27 1
  30       11       28 1
  31       13       29 1
  32       14       30 1
  33       14       31 1
  34       15       32 1
  35       15       33 1

@<TRIPOS>MOLECULE

  33   35
SMALL
USER_CHARGES
@<TRIPOS>ATOM
   1 C1           3.3453     0.0504     2.6365 C.3          1    LIG   0.0000
   2 N2           2.8697     1.4400     2.5637 N.pl3        1    LIG   0.0000
   3 C3           3.4312     2.4904     3.2305 C.2          1    LIG   0.0000
   4 C4           2.7216     3.6070     2.9144 C.2          1    LIG   0.0000
   5 C5           1.7042     3.1892     2.0279 C.2          1    LIG   0.0000
   6 O6           0.8545     3.8980     1.5188 O.2          1    LIG   0.0000
   7 N7           1.8489     1.8489     1.8489 N.pl3        1    LIG   0.0000
   8 C8           1.0000     1.0000     1.0000 C.3          1    LIG   0.0000
   9 C9           1.5775     0.9500    -0.4051 C.3          1    LIG   0.0000
  10 C10          0.7000     0.0724    -1.2827 C.3          1    LIG   0.0000
  11 C11          1.4251    -1.1633    -1.7354 C.3          1    LIG   0.0000
  12 C12          1.2083    -0.0261    -2.6917 C.3          1    LIG   0.0000
  13 C13          0.1033    -0.3697    -3.6721 C.3          1    LIG   0.0000
  14 C14         -1.0697     0.5501    -3.8092 C.3          1    LIG   0.0000
  15 C15         -0.0278     0.4948    -4.8941 C.3          1    LIG   0.0000
  16 H           -0.2841     0.0307    -1.1100 H            1    LIG   0.0000
  17 H            1.9817     0.5355    -2.9855 H            1    LIG   0.0000
  18 H            4.1353     0.0001     3.2475 H            1    LIG   0.0000
  19 H            2.6141    -0.5342     2.9882 H            1    LIG   0.0000
  20 H            3.6098    -0.2596     1.7234 H            1    LIG   0.0000
  21 H            4.2218     2.4469     3.8413 H            1    LIG   0.0000
  22 H            2.8870     4.5368     3.2433 H            1    LIG   0.0000
  23 H            0.0756     1.3800     0.9671 H            1    LIG   0.0000
  24 H            0.9671     0.0756     1.3800 H            1    LIG   0.0000
  25 H            1.6104     1.8744    -0.7851 H            1    LIG   0.0000
  26 H            2.5020     0.5700    -0.3722 H            1    LIG   0.0000
  27 H            2.3432    -1.3588    -1.3909 H            1    LIG   0.0000
  28 H            0.9248    -2.0206    -1.8563 H            1    LIG   0.0000
  29 H           -0.0841    -1.3436    -3.8001 H            1    LIG   0.0000
  30 H           -1.1414     1.3591    -3.2257 H            1    LIG   0.0000
  31 H           -1.9823     0.1753    -3.9729 H            1    LIG   0.0000
  32 H           -0.2469     0.0821    -5.7783 H            1    LIG   0.0000
  33 H            0.5939     1.2659    -5.0311 H            1    LIG   0.0000
@<TRIPOS>BOND
   1        1        2 1
   2        2        3 1
   3        3        4 2
   4        4        5 1
   5        5        6 2
   6        5        7 1
   7        7        2 1
   8        7        8 1
   9        8        9 1
  10        9       10 1
  11       10       11 1
  12       11       12 1
  13       12       10 1
  14       12       13 1
  15       13       14 1
  16       14       15 1
  17       15       13 1
  18       10       16 1
  19       12       17 1
  20        1       18 1
  21        1       19 1
  22        1       20 1
  23        3       21 1
  24        4       22 1
  25        8       23 1
  26        8       24 1
  27        9       25 1
  28        9       26 1
  29       11       27 1
  30       11       28 1
  31       13       29 1
  32       14       30 1
  33       14       31 1
  34       15       32 1
  35       15       33 1

@<TRIPOS>MOLECULE

  33   35
SMALL
USER_CHARGES
@<TRIPOS>ATOM
   1 C1           3.3453     0.0504     2.6365 C.3          1    LIG   0.0000
   2 N2           2.8697     1.4400     2.5637 N.pl3        1    LIG   0.0000
   3 C3           3.4312     2.4904     3.2305 C.2          1    LIG   0.0000
   4 C4           2.7216     3.6070     2.9144 C.2          1    LIG   0.0000
   5 C5           1.7042     3.1892     2.0279 C.2          1    LIG   0.0000
   6 O6           0.8545     3.8980     1.5188 O.2          1    LIG   0.0000
   7 N7           1.8489     1.8489     1.8489 N.pl3        1    LIG   0.0000
   8 C8           1.0000     1.0000     1.0000 C.3          1    LIG   0.0000
   9 C9           1.5775     0.9500    -0.4051 C.3          1    LIG   0.0000
  10 C10          0.7000     0.0724    -1.2827 C.3          1    LIG   0.0000
  11 C11          0.2473     0.7975    -2.5184 C.3          1    LIG   0.0000
  12 C12         -0.7090     0.5807    -1.3812 C.3          1    LIG   0.0000
  13 C13         -1.6894    -0.5243    -1.7248 C.3          1    LIG   0.0000
  14 C14         -3.1439    -0.1991    -1.8642 C.3          1    LIG   0.0000
  15 C15         -2.3183    -0.4887    -3.0890 C.3          1    LIG   0.0000
  16 H            0.8727    -0.9116    -1.3244 H            1    LIG   0.0000
  17 H           -1.0029     1.3542    -0.8196 H            1    LIG   0.0000
  18 H            4.1353     0.0001     3.2475 H            1    LIG   0.0000
  19 H            2.6141    -0.5342     2.9882 H            1    LIG   0.0000
  20 H            3.6098    -0.2596     1.7234 H            1    LIG   0.0000
  21 H            4.2218     2.4469     3.8413 H            1    LIG   0.0000
  22 H            2.8870     4.5368     3.2433 H            1    LIG   0.0000
  23 H            0.0756     1.3800     0.9671 H            1    LIG   0.0000
  24 H            0.9671     0.0756     1.3800 H            1    LIG   0.0000
  25 H            1.6104     1.8744    -0.7851 H            1    LIG   0.0000
  26 H            2.5020     0.5700    -0.3722 H            1    LIG   0.0000
  27 H            0.5918     1.7157    -2.7139 H            1    LIG   0.0000
  28 H            0.1264     0.2972    -3.3757 H            1    LIG   0.0000
  29 H           -1.4742    -1.4314    -1.3632 H            1    LIG   0.0000
  30 H           -3.4674     0.7306    -1.6878 H            1    LIG   0.0000
  31 H           -3.8343    -0.8555    -1.5600 H            1    LIG   0.0000
  32 H           -2.4585    -1.3379    -3.5981 H            1    LIG   0.0000
  33 H           -2.0916     0.2482    -3.7259 H            1    LIG   0.0000
@<TRIPOS>BOND
   1        1        2 1
   2        2        3 1
   3        3        4 2
   4        4        5 1
   5        5        6 2
   6        5        7 1
   7        7        2 1
   8        7        8 1
   9        8        9 1
  10        9       10 1
  11       10       11 1
  12       11       12 1
  13       12       10 1
  14       12       13 1
  15       13       14 1
  16       14       15 1
  17       15       13 1
  18       10       16 1
  19       12       17 1
  20        1       18 1
  21        1       19 1
  22        1       20 1
  23        3       21 1
  24        4       22 1
  25        8       23 1
  26        8       24 1
  27        9       25 1
  28        9       26 1
  29       11       27 1
  30       11       28 1
  31       13       29 1
  32       14       30 1
  33       14       31 1
  34       15       32 1
  35       15       33 1

@<TRIPOS>MOLECULE

  33   35
SMALL
USER_CHARGES
@<TRIPOS>ATOM
   1 C1           3.3453     0.0504     2.6365 C.3          1    LIG   0.0000
   2 N2           2.8697     1.4400     2.5637 N.pl3        1    LIG   0.0000
   3 C3           3.4312     2.4904     3.2305 C.2          1    LIG   0.0000
   4 C4           2.7216     3.6070     2.9144 C.2          1    LIG   0.0000
   5 C5           1.7042     3.1892     2.0279 C.2          1    LIG   0.0000
   6 O6           0.8545     3.8980     1.5188 O.2          1    LIG   0.0000
   7 N7           1.8489     1.8489     1.8489 N.pl3        1    LIG   0.0000
   8 C8           1.0000     1.0000     1.0000 C.3          1    LIG   0.0000
   9 C9           1.5775     0.9500    -0.4051 C.3          1    LIG   0.0000
  10 C10          0.7000     0.0724    -1.2827 C.3          1    LIG   0.0000
  11 C11          0.2473     0.7975    -2.5184 C.3          1    LIG   0.0000
  12 C12         -0.7090     0.5807    -1.3812 C.3          1    LIG   0.0000
  13 C13         -1.6894    -0.5243    -1.7248 C.3          1    LIG   0.0000
  14 C14         -1.8265    -1.6973    -0.8050 C.3          1    LIG   0.0000
  15 C15         -2.9114    -0.6554    -0.8603 C.3          1    LIG   0.0000
  16 H            0.8727    -0.9116    -1.3244 H            1    LIG   0.0000
  17 H           -1.0029     1.3542    -0.8196 H            1    LIG   0.0000
  18 H            4.1353     0.0001     3.2475 H            1    LIG   0.0000
  19 H            2.6141    -0.5342     2.9882 H            1    LIG   0.0000
  20 H            3.6098    -0.2596     1.7234 H            1    LIG   0.0000
  21 H            4.2218     2.4469     3.8413 H            1    LIG   0.0000
  22 H            2.8870     4.5368     3.2433 H            1    LIG   0.0000
  23 H            0.0756     1.3800     0.9671 H            1    LIG   0.0000
  24 H            0.9671     0.0756     1.3800 H            1    LIG   0.0000
  25 H            1.6104     1.8744    -0.7851 H            1    LIG   0.0000
  26 H            2.5020     0.5700    -0.3722 H            1    LIG   0.0000
  27 H            0.5918     1.7157    -2.7139 H            1    LIG   0.0000
  28 H            0.1264     0.2972    -3.3757 H            1    LIG   0.0000
  29 H           -1.8174    -0.7116    -2.6987 H            1    LIG   0.0000
  30 H           -1.2431    -1.7690     0.0040 H            1    LIG   0.0000
  31 H           -1.9903    -2.6098    -1.1798 H            1    LIG   0.0000
  32 H           -3.7956    -0.8745    -1.2730 H            1    LIG   0.0000
  33 H           -3.0484    -0.0336    -0.0892 H            1    LIG   0.0000
@<TRIPOS>BOND
   1        1        2 1
   2        2        3 1
   3        3        4 2
   4        4        5 1
   5        5        6 2
   6        5        7 1
   7        7        2 1
   8        7        8 1
   9        8        9 1
  10        9       10 1
  11       10       11 1
  12       11       12 1
  13       12       10 1
  14       12       13 1
  15       13       14 1
  16       14       15 1
  17       15       13 1
  18       10       16 1
  19       12       17 1
  20        1       18 1
  21        1       19 1
  22        1       20 1
  23        3       21 1
  24        4       22 1
  25        8       23 1
  26        8       24 1
  27        9       25 1
  28        9       26 1
  29       11       27 1
  30       11       28 1
  31       13       29 1
  32       14       30 1
  33       14       31 1
  34       15       32 1
  35       15       33 1

@<TRIPOS>MOLECULE

  33   35
SMALL
USER_CHARGES
@<TRIPOS>ATOM
   1 C1           3.3453     0.0504     2.6365 C.3          1    LIG   0.0000
   2 N2           2.8697     1.4400     2.5637 N.pl3        1    LIG   0.0000
   3 C3           3.4312     2.4904     3.2305 C.2          1    LIG   0.0000
   4 C4           2.7216     3.6070     2.9144 C.2          1    LIG   0.0000
   5 C5           1.7042     3.1892     2.0279 C.2          1    LIG   0.0000
   6 O6           0.8545     3.8980     1.5188 O.2          1    LIG   0.0000
   7 N7           1.8489     1.8489     1.8489 N.pl3        1    LIG   0.0000
   8 C8           1.0000     1.0000     1.0000 C.3          1    LIG   0.0000
   9 C9           1.5775     0.9500    -0.4051 C.3          1    LIG   0.0000
  10 C10          0.7000     0.0724    -1.2827 C.3          1    LIG   0.0000
  11 C11         -0.5357    -0.3803    -0.5576 C.3          1    LIG   0.0000
  12 C12          0.6014    -1.3366    -0.7744 C.3          1    LIG   0.0000
  13 C13          0.2579    -2.3170    -1.8794 C.3          1    LIG   0.0000
  14 C14          0.1185    -3.7715    -1.5542 C.3          1    LIG   0.0000
  15 C15         -1.1064    -2.9459    -1.8438 C.3          1    LIG   0.0000
  16 H            0.6582     0.2451    -2.2667 H            1    LIG   0.0000
  17 H            1.1630    -1.6304    -0.0009 H            1    LIG   0.0000
  18 H            4.1353     0.0001     3.2475 H            1    LIG   0.0000
  19 H            2.6141    -0.5342     2.9882 H            1    LIG   0.0000
  20 H            3.6098    -0.2596     1.7234 H            1    LIG   0.0000
  21 H            4.2218     2.4469     3.8413 H            1    LIG   0.0000
  22 H            2.8870     4.5368     3.2433 H            1    LIG   0.0000
  23 H            0.0756     1.3800     0.9671 H            1    LIG   0.0000
  24 H            0.9671     0.0756     1.3800 H            1    LIG   0.0000
  25 H            1.6104     1.8744    -0.7851 H            1    LIG   0.0000
  26 H            2.5020     0.5700    -0.3722 H            1    LIG   0.0000
  27 H           -0.7313    -0.0358     0.3606 H            1    LIG   0.0000
  28 H           -1.3931    -0.5012    -1.0579 H            1    LIG   0.0000
  29 H            0.6195    -2.1018    -2.7865 H            1    LIG   0.0000
  30 H            0.2949    -4.0950    -0.6245 H            1    LIG   0.0000
  31 H            0.4226    -4.4618    -2.2106 H            1    LIG   0.0000
  32 H           -1.6155    -3.0860    -2.6930 H            1    LIG   0.0000
  33 H           -1.7432    -2.7192    -1.1069 H            1    LIG   0.0000
@<TRIPOS>BOND
   1        1        2 1
   2        2        3 1
   3        3        4 2
   4        4        5 1
   5        5        6 2
   6        5        7 1
   7        7        2 1
   8        7        8 1
   9        8        9 1
  10        9       10 1
  11       10       11 1
  12       11       12 1
  13       12       10 1
  14       12       13 1
  15       13       14 1
  16       14       15 1
  17       15       13 1
  18       10       16 1
  19       12       17 1
  20        1       18 1
  21        1       19 1
  22        1       20 1
  23        3       21 1
  24        4       22 1
  25        8       23 1
  26        8       24 1
  27        9       25 1
  28        9       26 1
  29       11       27 1
  30       11       28 1
  31       13       29 1
  32       14       30 1
  33       14       31 1
  34       15       32 1
  35       15       33 1

@<TRIPOS>MOLECULE

  33   35
SMALL
USER_CHARGES
@<TRIPOS>ATOM
   1 C1           3.3453     0.0504     2.6365 C.3          1    LIG   0.0000
   2 N2           2.8697     1.4400     2.5637 N.pl3        1    LIG   0.0000
   3 C3           3.4312     2.4904     3.2305 C.2          1    LIG   0.0000
   4 C4           2.7216     3.6070     2.9144 C.2          1    LIG   0.0000
   5 C5           1.7042     3.1892     2.0279 C.2          1    LIG   0.0000
   6 O6           0.8545     3.8980     1.5188 O.2          1    LIG   0.0000
   7 N7           1.8489     1.8489     1.8489 N.pl3        1    LIG   0.0000
   8 C8           1.0000     1.0000     1.0000 C.3          1    LIG   0.0000
   9 C9           1.5775     0.9500    -0.4051 C.3          1    LIG   0.0000
  10 C10          0.7000     0.0724    -1.2827 C.3          1    LIG   0.0000
  11 C11         -0.5357    -0.3803    -0.5576 C.3          1    LIG   0.0000
  12 C12          0.6014    -1.3366    -0.7744 C.3          1    LIG   0.0000
  13 C13          0.2579    -2.3170    -1.8794 C.3          1    LIG   0.0000
  14 C14          1.1776    -2.4540    -3.0524 C.3          1    LIG   0.0000
  15 C15          1.1223    -3.5390    -2.0105 C.3          1    LIG   0.0000
  16 H            0.6582     0.2451    -2.2667 H            1    LIG   0.0000
  17 H            1.1630    -1.6304    -0.0009 H            1    LIG   0.0000
  18 H            4.1353     0.0001     3.2475 H            1    LIG   0.0000
  19 H            2.6141    -0.5342     2.9882 H            1    LIG   0.0000
  20 H            3.6098    -0.2596     1.7234 H            1    LIG   0.0000
  21 H            4.2218     2.4469     3.8413 H            1    LIG   0.0000
  22 H            2.8870     4.5368     3.2433 H            1    LIG   0.0000
  23 H            0.0756     1.3800     0.9671 H            1    LIG   0.0000
  24 H            0.9671     0.0756     1.3800 H            1    LIG   0.0000
  25 H            1.6104     1.8744    -0.7851 H            1    LIG   0.0000
  26 H            2.5020     0.5700    -0.3722 H            1    LIG   0.0000
  27 H           -0.7313    -0.0358     0.3606 H            1    LIG   0.0000
  28 H           -1.3931    -0.5012    -1.0579 H            1    LIG   0.0000
  29 H           -0.7161    -2.4450    -2.0667 H            1    LIG   0.0000
  30 H            1.9866    -1.8706    -3.1241 H            1    LIG   0.0000
  31 H            0.8029    -2.6178    -3.9649 H            1    LIG   0.0000
  32 H            0.7097    -4.4231    -2.2296 H            1    LIG   0.0000
  33 H            1.8935    -3.6760    -1.3887 H            1    LIG   0.0000
@<TRIPOS>BOND
   1        1        2 1
   2        2        3 1
   3        3        4 2
   4        4        5 1
   5        5        6 2
   6        5        7 1
   7        7        2 1
   8        7        8 1
   9        8        9 1
  10        9       10 1
  11       10       11 1
  12       11       12 1
  13       12       10 1
  14       12       13 1
  15       13       14 1
  16       14       15 1
  17       15       13 1
  18       10       16 1
  19       12       17 1
  20        1       18 1
  21        1       19 1
  22        1       20 1
  23        3       21 1
  24        4       22 1
  25        8       23 1
  26        8       24 1
  27        9       25 1
  28        9       26 1
  29       11       27 1
  30       11       28 1
  31       13       29 1
  32       14       30 1
  33       14       31 1
  34       15       32 1
  35       15       33 1

