@<TRIPOS>MOLECULE
*****
 33 35 0 0 0
SMALL
USER_CHARGES

@<TRIPOS>ATOM
      1 C1          0.6762    3.9711    1.3850 C.3     1  LIG1        0.0000
      2 N2          1.7126    3.1423    2.0185 N.pl3   1  LIG1        0.0000
      3 C3          2.6702    3.6110    2.8709 C.2     1  LIG1        0.0000
      4 C4          3.4404    2.5550    3.2476 C.2     1  LIG1        0.0000
      5 C5          2.9100    1.4250    2.5863 C.2     1  LIG1        0.0000
      6 O6          3.3264    0.2829    2.6620 O.2     1  LIG1        0.0000
      7 N7          1.8489    1.8489    1.8489 N.am    1  LIG1        0.0000
      8 C8          1.0000    1.0000    1.0000 C.3     1  LIG1        0.0000
      9 C9          1.5775    0.9500   -0.4051 C.3     1  LIG1        0.0000
     10 C10         0.7000    0.0724   -1.2827 C.3     1  LIG1        0.0000
     11 C11         0.2473    0.7975   -2.5184 C.3     1  LIG1        0.0000
     12 C12        -0.7090    0.5807   -1.3812 C.3     1  LIG1        0.0000
     13 C13        -1.6894   -0.5243   -1.7248 C.3     1  LIG1        0.0000
     14 C14        -1.8265   -1.6973   -0.8050 C.3     1  LIG1        0.0000
     15 C15        -2.9114   -0.6554   -0.8603 C.3     1  LIG1        0.0000
     16 H           0.8727   -0.9116   -1.3244 H       1  LIG1        0.0000
     17 H          -1.0029    1.3542   -0.8196 H       1  LIG1        0.0000
     18 H           0.7866    4.9219    1.6744 H       1  LIG1        0.0000
     19 H           0.7647    3.9129    0.3906 H       1  LIG1        0.0000
     20 H          -0.2275    3.6420    1.6590 H       1  LIG1        0.0000
     21 H           2.7849    4.5597    3.1654 H       1  LIG1        0.0000
     22 H           4.2244    2.5746    3.8680 H       1  LIG1        0.0000
     23 H           0.0756    1.3800    0.9671 H       1  LIG1        0.0000
     24 H           0.9671    0.0756    1.3800 H       1  LIG1        0.0000
     25 H           1.6104    1.8744   -0.7851 H       1  LIG1        0.0000
     26 H           2.5020    0.5700   -0.3722 H       1  LIG1        0.0000
     27 H           0.5918    1.7157   -2.7139 H       1  LIG1        0.0000
     28 H           0.1264    0.2972   -3.3757 H       1  LIG1        0.0000
     29 H          -1.8174   -0.7116   -2.6987 H       1  LIG1        0.0000
     30 H          -1.2431   -1.7690    0.0040 H       1  LIG1        0.0000
     31 H          -1.9903   -2.6098   -1.1798 H       1  LIG1        0.0000
     32 H          -3.7956   -0.8745   -1.2730 H       1  LIG1        0.0000
     33 H          -3.0484   -0.0336   -0.0892 H       1  LIG1        0.0000
@<TRIPOS>BOND
     1     1     2    1
     2     2     3    1
     3     3     4    2
     4     4     5    1
     5     5     6    2
     6     5     7   am
     7     7     2    1
     8     7     8    1
     9     8     9    1
    10     9    10    1
    11    10    11    1
    12    11    12    1
    13    12    10    1
    14    12    13    1
    15    13    14    1
    16    14    15    1
    17    15    13    1
    18    10    16    1
    19    12    17    1
    20     1    18    1
    21     1    19    1
    22     1    20    1
    23     3    21    1
    24     4    22    1
    25     8    23    1
    26     8    24    1
    27     9    25    1
    28     9    26    1
    29    11    27    1
    30    11    28    1
    31    13    29    1
    32    14    30    1
    33    14    31    1
    34    15    32    1
    35    15    33    1
