@<TRIPOS>MOLECULE
*****
 33 35 0 0 0
SMALL
USER_CHARGES

@<TRIPOS>ATOM
      1 C1          3.3453    0.0504    2.6365 C.3     1  LIG1        0.0000
      2 N2          2.8697    1.4400    2.5637 N.pl3   1  LIG1        0.0000
      3 C3          3.4312    2.4904    3.2305 C.2     1  LIG1        0.0000
      4 C4          2.7216    3.6070    2.9144 C.2     1  LIG1        0.0000
      5 C5          1.7042    3.1892    2.0279 C.2     1  LIG1        0.0000
      6 O6          0.8545    3.8980    1.5188 O.2     1  LIG1        0.0000
      7 N7          1.8489    1.8489    1.8489 N.am    1  LIG1        0.0000
      8 C8          1.0000    1.0000    1.0000 C.3     1  LIG1        0.0000
      9 C9          1.5775    0.9500   -0.4051 C.3     1  LIG1        0.0000
     10 C10         0.7000    0.0724   -1.2827 C.3     1  LIG1        0.0000
     11 C11         1.4251   -1.1633   -1.7354 C.3     1  LIG1        0.0000
     12 C12         1.2083   -0.0261   -2.6917 C.3     1  LIG1        0.0000
     13 C13         0.1033   -0.3697   -3.6721 C.3     1  LIG1        0.0000
     14 C14        -1.0697    0.5501   -3.8092 C.3     1  LIG1        0.0000
     15 C15        -0.0278    0.4948   -4.8941 C.3     1  LIG1        0.0000
     16 H          -0.2841    0.0307   -1.1100 H       1  LIG1        0.0000
     17 H           1.9817    0.5355   -2.9855 H       1  LIG1        0.0000
     18 H           4.1353    0.0001    3.2475 H       1  LIG1        0.0000
     19 H           2.6141   -0.5342    2.9882 H       1  LIG1        0.0000
     20 H           3.6098   -0.2596    1.7234 H       1  LIG1        0.0000
     21 H           4.2218    2.4469    3.8413 H       1  LIG1        0.0000
     22 H           2.8870    4.5368    3.2433 H       1  LIG1        0.0000
     23 H           0.0756    1.3800    0.9671 H       1  LIG1        0.0000
     24 H           0.9671    0.0756    1.3800 H       1  LIG1        0.0000
     25 H           1.6104    1.8744   -0.7851 H       1  LIG1        0.0000
     26 H           2.5020    0.5700   -0.3722 H       1  LIG1        0.0000
     27 H           2.3432   -1.3588   -1.3909 H       1  LIG1        0.0000
     28 H           0.9248   -2.0206   -1.8563 H       1  LIG1        0.0000
     29 H          -0.0841   -1.3436   -3.8001 H       1  LIG1        0.0000
     30 H          -1.1414    1.3591   -3.2257 H       1  LIG1        0.0000
     31 H          -1.9823    0.1753   -3.9729 H       1  LIG1        0.0000
     32 H          -0.2469    0.0821   -5.7783 H       1  LIG1        0.0000
     33 H           0.5939    1.2659   -5.0311 H       1  LIG1        0.0000
@<TRIPOS>BOND
     1     1     2    1
     2     2     3    1
     3     3     4    2
     4     4     5    1
     5     5     6    2
     6     5     7   am
     7     7     2    1
     8     7     8    1
     9     8     9    1
    10     9    10    1
    11    10    11    1
    12    11    12    1
    13    12    10    1
    14    12    13    1
    15    13    14    1
    16    14    15    1
    17    15    13    1
    18    10    16    1
    19    12    17    1
    20     1    18    1
    21     1    19    1
    22     1    20    1
    23     3    21    1
    24     4    22    1
    25     8    23    1
    26     8    24    1
    27     9    25    1
    28     9    26    1
    29    11    27    1
    30    11    28    1
    31    13    29    1
    32    14    30    1
    33    14    31    1
    34    15    32    1
    35    15    33    1
