@<TRIPOS>MOLECULE

  37   38
SMALL
USER_CHARGES
@<TRIPOS>ATOM
   1 C1           3.7059    -1.7449     0.5267 C.3          1    LIG   0.0000
   2 O2           4.1764    -0.4534     0.8833 O.3          1    LIG   0.0000
   3 C3           3.7428     0.5802     0.0115 C.3          1    LIG   0.0000
   4 C4           4.3027     1.9113     0.4860 C.3          1    LIG   0.0000
   5 C5           2.2249     0.6400     0.0125 C.2          1    LIG   0.0000
   6 N6           1.3666    -0.3515     0.0150 N.2          1    LIG   0.0000
   7 C7           0.0502     0.0220     0.0093 C.2          1    LIG   0.0000
   8 C8          -1.0651    -0.9051     0.0172 C.ar         1    LIG   0.0000
   9 C9          -2.3572    -0.3896     0.0101 C.ar         1    LIG   0.0000
  10 C10         -3.4496    -1.2506     0.0175 C.ar         1    LIG   0.0000
  11 C11         -4.8471    -0.6523     0.0093 C.3          1    LIG   0.0000
  12 C12         -3.2499    -2.6279     0.0314 C.ar         1    LIG   0.0000
  13 C13         -4.4207    -3.5978     0.0394 C.3          1    LIG   0.0000
  14 C14         -1.9581    -3.1434     0.0385 C.ar         1    LIG   0.0000
  15 C15         -0.8656    -2.2822     0.0317 C.ar         1    LIG   0.0000
  16 C16          0.5312    -2.8823     0.0398 C.3          1    LIG   0.0000
  17 C17         -0.2176     1.3565    -0.0040 C.2          1    LIG   0.0000
  18 S18          1.3241     2.0821    -0.0028 S.3          1    LIG   0.0000
  19 H            4.0684     0.3930    -0.9153 H            1    LIG   0.0000
  20 H            4.0497    -2.4176     1.1820 H            1    LIG   0.0000
  21 H            2.7060    -1.7501     0.5373 H            1    LIG   0.0000
  22 H            4.0308    -1.9766    -0.3902 H            1    LIG   0.0000
  23 H            3.9973     2.6392    -0.1279 H            1    LIG   0.0000
  24 H            3.9771     2.0985     1.4128 H            1    LIG   0.0000
  25 H            5.3019     1.8719     0.4854 H            1    LIG   0.0000
  26 H           -2.5006     0.6001    -0.0004 H            1    LIG   0.0000
  27 H           -4.7825     0.3456    -0.0004 H            1    LIG   0.0000
  28 H           -5.3378    -0.9625    -0.8049 H            1    LIG   0.0000
  29 H           -5.3404    -0.9464     0.8280 H            1    LIG   0.0000
  30 H           -4.0759    -4.5364     0.0492 H            1    LIG   0.0000
  31 H           -4.9792    -3.4394     0.8537 H            1    LIG   0.0000
  32 H           -4.9771    -3.4556    -0.7792 H            1    LIG   0.0000
  33 H           -1.8147    -4.1330     0.0485 H            1    LIG   0.0000
  34 H            0.4652    -3.8801     0.0500 H            1    LIG   0.0000
  35 H            1.0247    -2.5892    -0.7791 H            1    LIG   0.0000
  36 H            1.0224    -2.5724     0.8538 H            1    LIG   0.0000
  37 H           -1.1108     1.8061    -0.0125 H            1    LIG   0.0000
@<TRIPOS>BOND
   1        1        2 1
   2        2        3 1
   3        3        4 1
   4        3        5 1
   5        5        6 2
   6        6        7 1
   7        7        8 1
   8        8        9 ar
   9        9       10 ar
  10       10       11 1
  11       10       12 ar
  12       12       13 1
  13       12       14 ar
  14       14       15 ar
  15       15        8 ar
  16       15       16 1
  17        7       17 2
  18       17       18 1
  19       18        5 1
  20        3       19 1
  21        1       20 1
  22        1       21 1
  23        1       22 1
  24        4       23 1
  25        4       24 1
  26        4       25 1
  27        9       26 1
  28       11       27 1
  29       11       28 1
  30       11       29 1
  31       13       30 1
  32       13       31 1
  33       13       32 1
  34       14       33 1
  35       16       34 1
  36       16       35 1
  37       16       36 1
  38       17       37 1

@<TRIPOS>MOLECULE

  37   38
SMALL
USER_CHARGES
@<TRIPOS>ATOM
   1 C1           3.7059    -1.7449     0.5267 C.3          1    LIG   0.0000
   2 O2           4.1764    -0.4534     0.8833 O.3          1    LIG   0.0000
   3 C3           3.7428     0.5802     0.0115 C.3          1    LIG   0.0000
   4 C4           4.3027     1.9113     0.4860 C.3          1    LIG   0.0000
   5 C5           2.2249     0.6400     0.0125 C.2          1    LIG   0.0000
   6 N6           1.3666    -0.3515     0.0150 N.2          1    LIG   0.0000
   7 C7           0.0502     0.0220     0.0093 C.2          1    LIG   0.0000
   8 C8          -1.0651    -0.9051     0.0172 C.ar         1    LIG   0.0000
   9 C9          -1.5741    -1.3421    -1.2014 C.ar         1    LIG   0.0000
  10 C10         -2.6435    -2.2312    -1.2299 C.ar         1    LIG   0.0000
  11 C11         -3.1739    -2.6876    -2.5795 C.3          1    LIG   0.0000
  12 C12         -3.2038    -2.6840    -0.0391 C.ar         1    LIG   0.0000
  13 C13         -4.3729    -3.6560    -0.0332 C.3          1    LIG   0.0000
  14 C14         -2.6949    -2.2471     1.1794 C.ar         1    LIG   0.0000
  15 C15         -1.6258    -1.3574     1.2078 C.ar         1    LIG   0.0000
  16 C16         -1.0967    -0.9021     2.5584 C.3          1    LIG   0.0000
  17 C17         -0.2176     1.3565    -0.0040 C.2          1    LIG   0.0000
  18 S18          1.3241     2.0821    -0.0028 S.3          1    LIG   0.0000
  19 H            4.0684     0.3930    -0.9153 H            1    LIG   0.0000
  20 H            4.0497    -2.4176     1.1820 H            1    LIG   0.0000
  21 H            2.7060    -1.7501     0.5373 H            1    LIG   0.0000
  22 H            4.0308    -1.9766    -0.3902 H            1    LIG   0.0000
  23 H            3.9973     2.6392    -0.1279 H            1    LIG   0.0000
  24 H            3.9771     2.0985     1.4128 H            1    LIG   0.0000
  25 H            5.3019     1.8719     0.4854 H            1    LIG   0.0000
  26 H           -1.1712    -1.0171    -2.0570 H            1    LIG   0.0000
  27 H           -2.6444    -2.2552    -3.3093 H            1    LIG   0.0000
  28 H           -3.0910    -3.6816    -2.6514 H            1    LIG   0.0000
  29 H           -4.1353    -2.4262    -2.6655 H            1    LIG   0.0000
  30 H           -4.6314    -3.8607     0.9109 H            1    LIG   0.0000
  31 H           -5.1500    -3.2456    -0.5102 H            1    LIG   0.0000
  32 H           -4.1060    -4.5012    -0.4964 H            1    LIG   0.0000
  33 H           -3.0976    -2.5724     2.0350 H            1    LIG   0.0000
  34 H           -1.6272    -1.3348     3.2873 H            1    LIG   0.0000
  35 H           -0.1355    -1.1640     2.6453 H            1    LIG   0.0000
  36 H           -1.1793     0.0918     2.6309 H            1    LIG   0.0000
  37 H           -1.1108     1.8061    -0.0125 H            1    LIG   0.0000
@<TRIPOS>BOND
   1        1        2 1
   2        2        3 1
   3        3        4 1
   4        3        5 1
   5        5        6 2
   6        6        7 1
   7        7        8 1
   8        8        9 ar
   9        9       10 ar
  10       10       11 1
  11       10       12 ar
  12       12       13 1
  13       12       14 ar
  14       14       15 ar
  15       15        8 ar
  16       15       16 1
  17        7       17 2
  18       17       18 1
  19       18        5 1
  20        3       19 1
  21        1       20 1
  22        1       21 1
  23        1       22 1
  24        4       23 1
  25        4       24 1
  26        4       25 1
  27        9       26 1
  28       11       27 1
  29       11       28 1
  30       11       29 1
  31       13       30 1
  32       13       31 1
  33       13       32 1
  34       14       33 1
  35       16       34 1
  36       16       35 1
  37       16       36 1
  38       17       37 1

@<TRIPOS>MOLECULE

  37   38
SMALL
USER_CHARGES
@<TRIPOS>ATOM
   1 C1           3.7059    -1.7449     0.5267 C.3          1    LIG   0.0000
   2 O2           4.1764    -0.4534     0.8833 O.3          1    LIG   0.0000
   3 C3           3.7428     0.5802     0.0115 C.3          1    LIG   0.0000
   4 C4           4.3027     1.9113     0.4860 C.3          1    LIG   0.0000
   5 C5           2.2249     0.6400     0.0125 C.2          1    LIG   0.0000
   6 N6           1.3666    -0.3515     0.0150 N.2          1    LIG   0.0000
   7 C7           0.0502     0.0220     0.0093 C.2          1    LIG   0.0000
   8 C8          -1.0651    -0.9051     0.0172 C.ar         1    LIG   0.0000
   9 C9          -1.5776    -1.3169     1.2432 C.ar         1    LIG   0.0000
  10 C10         -2.6470    -2.2054     1.2869 C.ar         1    LIG   0.0000
  11 C11         -3.1812    -2.6340     2.6441 C.3          1    LIG   0.0000
  12 C12         -3.2046    -2.6818     0.1040 C.ar         1    LIG   0.0000
  13 C13         -4.3740    -3.6534     0.1148 C.3          1    LIG   0.0000
  14 C14         -2.6923    -2.2700    -1.1218 C.ar         1    LIG   0.0000
  15 C15         -1.6224    -1.3819    -1.1654 C.ar         1    LIG   0.0000
  16 C16         -1.0895    -0.9544    -2.5235 C.3          1    LIG   0.0000
  17 C17         -0.2176     1.3565    -0.0040 C.2          1    LIG   0.0000
  18 S18          1.3241     2.0821    -0.0028 S.3          1    LIG   0.0000
  19 H            4.0684     0.3930    -0.9153 H            1    LIG   0.0000
  20 H            4.0497    -2.4176     1.1820 H            1    LIG   0.0000
  21 H            2.7060    -1.7501     0.5373 H            1    LIG   0.0000
  22 H            4.0308    -1.9766    -0.3902 H            1    LIG   0.0000
  23 H            3.9973     2.6392    -0.1279 H            1    LIG   0.0000
  24 H            3.9771     2.0985     1.4128 H            1    LIG   0.0000
  25 H            5.3019     1.8719     0.4854 H            1    LIG   0.0000
  26 H           -1.1772    -0.9743     2.0930 H            1    LIG   0.0000
  27 H           -2.6532    -2.1874     3.3663 H            1    LIG   0.0000
  28 H           -4.1426    -2.3702     2.7223 H            1    LIG   0.0000
  29 H           -3.0993    -3.6264     2.7363 H            1    LIG   0.0000
  30 H           -4.6304    -3.8768    -0.8256 H            1    LIG   0.0000
  31 H           -4.1085    -4.4892     0.5955 H            1    LIG   0.0000
  32 H           -5.1522    -3.2333     0.5817 H            1    LIG   0.0000
  33 H           -3.0930    -2.6124    -1.9716 H            1    LIG   0.0000
  34 H           -1.6180    -1.4020    -3.2449 H            1    LIG   0.0000
  35 H           -1.1719     0.0378    -2.6167 H            1    LIG   0.0000
  36 H           -0.1281    -1.2179    -2.6023 H            1    LIG   0.0000
  37 H           -1.1108     1.8061    -0.0125 H            1    LIG   0.0000
@<TRIPOS>BOND
   1        1        2 1
   2        2        3 1
   3        3        4 1
   4        3        5 1
   5        5        6 2
   6        6        7 1
   7        7        8 1
   8        8        9 ar
   9        9       10 ar
  10       10       11 1
  11       10       12 ar
  12       12       13 1
  13       12       14 ar
  14       14       15 ar
  15       15        8 ar
  16       15       16 1
  17        7       17 2
  18       17       18 1
  19       18        5 1
  20        3       19 1
  21        1       20 1
  22        1       21 1
  23        1       22 1
  24        4       23 1
  25        4       24 1
  26        4       25 1
  27        9       26 1
  28       11       27 1
  29       11       28 1
  30       11       29 1
  31       13       30 1
  32       13       31 1
  33       13       32 1
  34       14       33 1
  35       16       34 1
  36       16       35 1
  37       16       36 1
  38       17       37 1

@<TRIPOS>MOLECULE

  37   38
SMALL
USER_CHARGES
@<TRIPOS>ATOM
   1 C1           5.6219     0.2702     1.4419 C.3          1    LIG   0.0000
   2 O2           4.2081     0.3441     1.3322 O.3          1    LIG   0.0000
   3 C3           3.7428     0.5802     0.0115 C.3          1    LIG   0.0000
   4 C4           4.3016     1.9002    -0.4942 C.3          1    LIG   0.0000
   5 C5           2.2249     0.6400     0.0125 C.2          1    LIG   0.0000
   6 N6           1.3666    -0.3515     0.0150 N.2          1    LIG   0.0000
   7 C7           0.0502     0.0220     0.0093 C.2          1    LIG   0.0000
   8 C8          -1.0651    -0.9051     0.0172 C.ar         1    LIG   0.0000
   9 C9          -1.1867    -1.7886     1.0848 C.ar         1    LIG   0.0000
  10 C10         -2.2445    -2.6910     1.1238 C.ar         1    LIG   0.0000
  11 C11         -2.3460    -3.6419     2.3056 C.3          1    LIG   0.0000
  12 C12         -3.1817    -2.7095     0.0950 C.ar         1    LIG   0.0000
  13 C13         -4.3503    -3.6820     0.1056 C.3          1    LIG   0.0000
  14 C14         -3.0602    -1.8261    -0.9724 C.ar         1    LIG   0.0000
  15 C15         -2.0019    -0.9240    -1.0117 C.ar         1    LIG   0.0000
  16 C16         -1.9021     0.0261    -2.1943 C.3          1    LIG   0.0000
  17 C17         -0.2176     1.3565    -0.0040 C.2          1    LIG   0.0000
  18 S18          1.3241     2.0821    -0.0028 S.3          1    LIG   0.0000
  19 H            4.0468    -0.1614    -0.5866 H            1    LIG   0.0000
  20 H            5.8741     0.1031     2.3950 H            1    LIG   0.0000
  21 H            5.9619    -0.4773     0.8712 H            1    LIG   0.0000
  22 H            6.0255     1.1327     1.1366 H            1    LIG   0.0000
  23 H            3.9739     2.0665    -1.4242 H            1    LIG   0.0000
  24 H            3.9976     2.6418     0.1039 H            1    LIG   0.0000
  25 H            5.3008     1.8609    -0.4949 H            1    LIG   0.0000
  26 H           -0.5136    -1.7750     1.8242 H            1    LIG   0.0000
  27 H           -1.5858    -3.4753     2.9336 H            1    LIG   0.0000
  28 H           -3.2117    -3.4897     2.7825 H            1    LIG   0.0000
  29 H           -2.3072    -4.5859     1.9782 H            1    LIG   0.0000
  30 H           -4.9080    -3.5419    -0.7125 H            1    LIG   0.0000
  31 H           -4.0033    -4.6199     0.1159 H            1    LIG   0.0000
  32 H           -4.9081    -3.5240     0.9204 H            1    LIG   0.0000
  33 H           -3.7336    -1.8394    -1.7116 H            1    LIG   0.0000
  34 H           -2.6625    -0.1416    -2.8217 H            1    LIG   0.0000
  35 H           -1.9417     0.9704    -1.8675 H            1    LIG   0.0000
  36 H           -1.0365    -0.1255    -2.6715 H            1    LIG   0.0000
  37 H           -1.1108     1.8061    -0.0125 H            1    LIG   0.0000
@<TRIPOS>BOND
   1        1        2 1
   2        2        3 1
   3        3        4 1
   4        3        5 1
   5        5        6 2
   6        6        7 1
   7        7        8 1
   8        8        9 ar
   9        9       10 ar
  10       10       11 1
  11       10       12 ar
  12       12       13 1
  13       12       14 ar
  14       14       15 ar
  15       15        8 ar
  16       15       16 1
  17        7       17 2
  18       17       18 1
  19       18        5 1
  20        3       19 1
  21        1       20 1
  22        1       21 1
  23        1       22 1
  24        4       23 1
  25        4       24 1
  26        4       25 1
  27        9       26 1
  28       11       27 1
  29       11       28 1
  30       11       29 1
  31       13       30 1
  32       13       31 1
  33       13       32 1
  34       14       33 1
  35       16       34 1
  36       16       35 1
  37       16       36 1
  38       17       37 1

@<TRIPOS>MOLECULE

  37   38
SMALL
USER_CHARGES
@<TRIPOS>ATOM
   1 C1           5.6657     1.4252    -1.1117 C.3          1    LIG   0.0000
   2 O2           4.2485     1.4098    -1.0241 O.3          1    LIG   0.0000
   3 C3           3.7428     0.5802     0.0115 C.3          1    LIG   0.0000
   4 C4           4.1933    -0.8527    -0.2217 C.3          1    LIG   0.0000
   5 C5           2.2249     0.6400     0.0125 C.2          1    LIG   0.0000
   6 N6           1.3666    -0.3515     0.0150 N.2          1    LIG   0.0000
   7 C7           0.0502     0.0220     0.0093 C.2          1    LIG   0.0000
   8 C8          -1.0651    -0.9051     0.0172 C.ar         1    LIG   0.0000
   9 C9          -2.3572    -0.3896     0.0101 C.ar         1    LIG   0.0000
  10 C10         -3.4496    -1.2506     0.0175 C.ar         1    LIG   0.0000
  11 C11         -4.8471    -0.6523     0.0093 C.3          1    LIG   0.0000
  12 C12         -3.2499    -2.6279     0.0314 C.ar         1    LIG   0.0000
  13 C13         -4.4207    -3.5978     0.0394 C.3          1    LIG   0.0000
  14 C14         -1.9581    -3.1434     0.0385 C.ar         1    LIG   0.0000
  15 C15         -0.8656    -2.2822     0.0317 C.ar         1    LIG   0.0000
  16 C16          0.5312    -2.8823     0.0398 C.3          1    LIG   0.0000
  17 C17         -0.2176     1.3565    -0.0040 C.2          1    LIG   0.0000
  18 S18          1.3241     2.0821    -0.0028 S.3          1    LIG   0.0000
  19 H            4.0896     0.8993     0.8935 H            1    LIG   0.0000
  20 H            5.9470     2.0272    -1.8590 H            1    LIG   0.0000
  21 H            6.0493     1.7604    -0.2512 H            1    LIG   0.0000
  22 H            5.9989     0.4987    -1.2867 H            1    LIG   0.0000
  23 H            3.8372    -1.4369     0.5075 H            1    LIG   0.0000
  24 H            3.8465    -1.1717    -1.1038 H            1    LIG   0.0000
  25 H            5.1925    -0.8920    -0.2224 H            1    LIG   0.0000
  26 H           -2.5006     0.6001    -0.0004 H            1    LIG   0.0000
  27 H           -4.7825     0.3456    -0.0004 H            1    LIG   0.0000
  28 H           -5.3378    -0.9625    -0.8049 H            1    LIG   0.0000
  29 H           -5.3404    -0.9464     0.8280 H            1    LIG   0.0000
  30 H           -4.0759    -4.5364     0.0492 H            1    LIG   0.0000
  31 H           -4.9792    -3.4394     0.8537 H            1    LIG   0.0000
  32 H           -4.9771    -3.4556    -0.7792 H            1    LIG   0.0000
  33 H           -1.8147    -4.1330     0.0485 H            1    LIG   0.0000
  34 H            0.4652    -3.8801     0.0500 H            1    LIG   0.0000
  35 H            1.0247    -2.5892    -0.7791 H            1    LIG   0.0000
  36 H            1.0224    -2.5724     0.8538 H            1    LIG   0.0000
  37 H           -1.1108     1.8061    -0.0125 H            1    LIG   0.0000
@<TRIPOS>BOND
   1        1        2 1
   2        2        3 1
   3        3        4 1
   4        3        5 1
   5        5        6 2
   6        6        7 1
   7        7        8 1
   8        8        9 ar
   9        9       10 ar
  10       10       11 1
  11       10       12 ar
  12       12       13 1
  13       12       14 ar
  14       14       15 ar
  15       15        8 ar
  16       15       16 1
  17        7       17 2
  18       17       18 1
  19       18        5 1
  20        3       19 1
  21        1       20 1
  22        1       21 1
  23        1       22 1
  24        4       23 1
  25        4       24 1
  26        4       25 1
  27        9       26 1
  28       11       27 1
  29       11       28 1
  30       11       29 1
  31       13       30 1
  32       13       31 1
  33       13       32 1
  34       14       33 1
  35       16       34 1
  36       16       35 1
  37       16       36 1
  38       17       37 1

@<TRIPOS>MOLECULE

  37   38
SMALL
USER_CHARGES
@<TRIPOS>ATOM
   1 C1           5.6657     1.4252    -1.1117 C.3          1    LIG   0.0000
   2 O2           4.2485     1.4098    -1.0241 O.3          1    LIG   0.0000
   3 C3           3.7428     0.5802     0.0115 C.3          1    LIG   0.0000
   4 C4           4.1933    -0.8527    -0.2217 C.3          1    LIG   0.0000
   5 C5           2.2249     0.6400     0.0125 C.2          1    LIG   0.0000
   6 N6           1.3666    -0.3515     0.0150 N.2          1    LIG   0.0000
   7 C7           0.0502     0.0220     0.0093 C.2          1    LIG   0.0000
   8 C8          -1.0651    -0.9051     0.0172 C.ar         1    LIG   0.0000
   9 C9          -1.5741    -1.3421    -1.2014 C.ar         1    LIG   0.0000
  10 C10         -2.6435    -2.2312    -1.2299 C.ar         1    LIG   0.0000
  11 C11         -3.1739    -2.6876    -2.5795 C.3          1    LIG   0.0000
  12 C12         -3.2038    -2.6840    -0.0391 C.ar         1    LIG   0.0000
  13 C13         -4.3729    -3.6560    -0.0332 C.3          1    LIG   0.0000
  14 C14         -2.6949    -2.2471     1.1794 C.ar         1    LIG   0.0000
  15 C15         -1.6258    -1.3574     1.2078 C.ar         1    LIG   0.0000
  16 C16         -1.0967    -0.9021     2.5584 C.3          1    LIG   0.0000
  17 C17         -0.2176     1.3565    -0.0040 C.2          1    LIG   0.0000
  18 S18          1.3241     2.0821    -0.0028 S.3          1    LIG   0.0000
  19 H            4.0896     0.8993     0.8935 H            1    LIG   0.0000
  20 H            5.9470     2.0272    -1.8590 H            1    LIG   0.0000
  21 H            6.0493     1.7604    -0.2512 H            1    LIG   0.0000
  22 H            5.9989     0.4987    -1.2867 H            1    LIG   0.0000
  23 H            3.8372    -1.4369     0.5075 H            1    LIG   0.0000
  24 H            3.8465    -1.1717    -1.1038 H            1    LIG   0.0000
  25 H            5.1925    -0.8920    -0.2224 H            1    LIG   0.0000
  26 H           -1.1712    -1.0171    -2.0570 H            1    LIG   0.0000
  27 H           -2.6444    -2.2552    -3.3093 H            1    LIG   0.0000
  28 H           -3.0910    -3.6816    -2.6514 H            1    LIG   0.0000
  29 H           -4.1353    -2.4262    -2.6655 H            1    LIG   0.0000
  30 H           -4.6314    -3.8607     0.9109 H            1    LIG   0.0000
  31 H           -5.1500    -3.2456    -0.5102 H            1    LIG   0.0000
  32 H           -4.1060    -4.5012    -0.4964 H            1    LIG   0.0000
  33 H           -3.0976    -2.5724     2.0350 H            1    LIG   0.0000
  34 H           -1.6272    -1.3348     3.2873 H            1    LIG   0.0000
  35 H           -0.1355    -1.1640     2.6453 H            1    LIG   0.0000
  36 H           -1.1793     0.0918     2.6309 H            1    LIG   0.0000
  37 H           -1.1108     1.8061    -0.0125 H            1    LIG   0.0000
@<TRIPOS>BOND
   1        1        2 1
   2        2        3 1
   3        3        4 1
   4        3        5 1
   5        5        6 2
   6        6        7 1
   7        7        8 1
   8        8        9 ar
   9        9       10 ar
  10       10       11 1
  11       10       12 ar
  12       12       13 1
  13       12       14 ar
  14       14       15 ar
  15       15        8 ar
  16       15       16 1
  17        7       17 2
  18       17       18 1
  19       18        5 1
  20        3       19 1
  21        1       20 1
  22        1       21 1
  23        1       22 1
  24        4       23 1
  25        4       24 1
  26        4       25 1
  27        9       26 1
  28       11       27 1
  29       11       28 1
  30       11       29 1
  31       13       30 1
  32       13       31 1
  33       13       32 1
  34       14       33 1
  35       16       34 1
  36       16       35 1
  37       16       36 1
  38       17       37 1

@<TRIPOS>MOLECULE

  37   38
SMALL
USER_CHARGES
@<TRIPOS>ATOM
   1 C1           5.6657     1.4252    -1.1117 C.3          1    LIG   0.0000
   2 O2           4.2485     1.4098    -1.0241 O.3          1    LIG   0.0000
   3 C3           3.7428     0.5802     0.0115 C.3          1    LIG   0.0000
   4 C4           4.1933    -0.8527    -0.2217 C.3          1    LIG   0.0000
   5 C5           2.2249     0.6400     0.0125 C.2          1    LIG   0.0000
   6 N6           1.3666    -0.3515     0.0150 N.2          1    LIG   0.0000
   7 C7           0.0502     0.0220     0.0093 C.2          1    LIG   0.0000
   8 C8          -1.0651    -0.9051     0.0172 C.ar         1    LIG   0.0000
   9 C9          -1.5776    -1.3169     1.2432 C.ar         1    LIG   0.0000
  10 C10         -2.6470    -2.2054     1.2869 C.ar         1    LIG   0.0000
  11 C11         -3.1812    -2.6340     2.6441 C.3          1    LIG   0.0000
  12 C12         -3.2046    -2.6818     0.1040 C.ar         1    LIG   0.0000
  13 C13         -4.3740    -3.6534     0.1148 C.3          1    LIG   0.0000
  14 C14         -2.6923    -2.2700    -1.1218 C.ar         1    LIG   0.0000
  15 C15         -1.6224    -1.3819    -1.1654 C.ar         1    LIG   0.0000
  16 C16         -1.0895    -0.9544    -2.5235 C.3          1    LIG   0.0000
  17 C17         -0.2176     1.3565    -0.0040 C.2          1    LIG   0.0000
  18 S18          1.3241     2.0821    -0.0028 S.3          1    LIG   0.0000
  19 H            4.0896     0.8993     0.8935 H            1    LIG   0.0000
  20 H            5.9470     2.0272    -1.8590 H            1    LIG   0.0000
  21 H            6.0493     1.7604    -0.2512 H            1    LIG   0.0000
  22 H            5.9989     0.4987    -1.2867 H            1    LIG   0.0000
  23 H            3.8372    -1.4369     0.5075 H            1    LIG   0.0000
  24 H            3.8465    -1.1717    -1.1038 H            1    LIG   0.0000
  25 H            5.1925    -0.8920    -0.2224 H            1    LIG   0.0000
  26 H           -1.1772    -0.9743     2.0930 H            1    LIG   0.0000
  27 H           -2.6532    -2.1874     3.3663 H            1    LIG   0.0000
  28 H           -4.1426    -2.3702     2.7223 H            1    LIG   0.0000
  29 H           -3.0993    -3.6264     2.7363 H            1    LIG   0.0000
  30 H           -4.6304    -3.8768    -0.8256 H            1    LIG   0.0000
  31 H           -4.1085    -4.4892     0.5955 H            1    LIG   0.0000
  32 H           -5.1522    -3.2333     0.5817 H            1    LIG   0.0000
  33 H           -3.0930    -2.6124    -1.9716 H            1    LIG   0.0000
  34 H           -1.6180    -1.4020    -3.2449 H            1    LIG   0.0000
  35 H           -1.1719     0.0378    -2.6167 H            1    LIG   0.0000
  36 H           -0.1281    -1.2179    -2.6023 H            1    LIG   0.0000
  37 H           -1.1108     1.8061    -0.0125 H            1    LIG   0.0000
@<TRIPOS>BOND
   1        1        2 1
   2        2        3 1
   3        3        4 1
   4        3        5 1
   5        5        6 2
   6        6        7 1
   7        7        8 1
   8        8        9 ar
   9        9       10 ar
  10       10       11 1
  11       10       12 ar
  12       12       13 1
  13       12       14 ar
  14       14       15 ar
  15       15        8 ar
  16       15       16 1
  17        7       17 2
  18       17       18 1
  19       18        5 1
  20        3       19 1
  21        1       20 1
  22        1       21 1
  23        1       22 1
  24        4       23 1
  25        4       24 1
  26        4       25 1
  27        9       26 1
  28       11       27 1
  29       11       28 1
  30       11       29 1
  31       13       30 1
  32       13       31 1
  33       13       32 1
  34       14       33 1
  35       16       34 1
  36       16       35 1
  37       16       36 1
  38       17       37 1

@<TRIPOS>MOLECULE

  37   38
SMALL
USER_CHARGES
@<TRIPOS>ATOM
   1 C1           5.6188     0.2380    -1.4157 C.3          1    LIG   0.0000
   2 O2           4.2052     0.3144    -1.3046 O.3          1    LIG   0.0000
   3 C3           3.7428     0.5802     0.0115 C.3          1    LIG   0.0000
   4 C4           4.2069    -0.5262     0.9447 C.3          1    LIG   0.0000
   5 C5           2.2249     0.6400     0.0125 C.2          1    LIG   0.0000
   6 N6           1.3666    -0.3515     0.0150 N.2          1    LIG   0.0000
   7 C7           0.0502     0.0220     0.0093 C.2          1    LIG   0.0000
   8 C8          -1.0651    -0.9051     0.0172 C.ar         1    LIG   0.0000
   9 C9          -1.1867    -1.7886     1.0848 C.ar         1    LIG   0.0000
  10 C10         -2.2445    -2.6910     1.1238 C.ar         1    LIG   0.0000
  11 C11         -2.3460    -3.6419     2.3056 C.3          1    LIG   0.0000
  12 C12         -3.1817    -2.7095     0.0950 C.ar         1    LIG   0.0000
  13 C13         -4.3503    -3.6820     0.1056 C.3          1    LIG   0.0000
  14 C14         -3.0602    -1.8261    -0.9724 C.ar         1    LIG   0.0000
  15 C15         -2.0019    -0.9240    -1.0117 C.ar         1    LIG   0.0000
  16 C16         -1.9021     0.0261    -2.1943 C.3          1    LIG   0.0000
  17 C17         -0.2176     1.3565    -0.0040 C.2          1    LIG   0.0000
  18 S18          1.3241     2.0821    -0.0028 S.3          1    LIG   0.0000
  19 H            4.1111     1.4559     0.3237 H            1    LIG   0.0000
  20 H            5.8688     0.0495    -2.3654 H            1    LIG   0.0000
  21 H            6.0230     1.1072    -1.1308 H            1    LIG   0.0000
  22 H            5.9600    -0.4965    -0.8291 H            1    LIG   0.0000
  23 H            3.8813    -0.3391     1.8715 H            1    LIG   0.0000
  24 H            3.8386    -1.4020     0.6325 H            1    LIG   0.0000
  25 H            5.2062    -0.5656     0.9440 H            1    LIG   0.0000
  26 H           -0.5136    -1.7750     1.8242 H            1    LIG   0.0000
  27 H           -1.5858    -3.4753     2.9336 H            1    LIG   0.0000
  28 H           -3.2117    -3.4897     2.7825 H            1    LIG   0.0000
  29 H           -2.3072    -4.5859     1.9782 H            1    LIG   0.0000
  30 H           -4.9080    -3.5419    -0.7125 H            1    LIG   0.0000
  31 H           -4.0033    -4.6199     0.1159 H            1    LIG   0.0000
  32 H           -4.9081    -3.5240     0.9204 H            1    LIG   0.0000
  33 H           -3.7336    -1.8394    -1.7116 H            1    LIG   0.0000
  34 H           -2.6625    -0.1416    -2.8217 H            1    LIG   0.0000
  35 H           -1.9417     0.9704    -1.8675 H            1    LIG   0.0000
  36 H           -1.0365    -0.1255    -2.6715 H            1    LIG   0.0000
  37 H           -1.1108     1.8061    -0.0125 H            1    LIG   0.0000
@<TRIPOS>BOND
   1        1        2 1
   2        2        3 1
   3        3        4 1
   4        3        5 1
   5        5        6 2
   6        6        7 1
   7        7        8 1
   8        8        9 ar
   9        9       10 ar
  10       10       11 1
  11       10       12 ar
  12       12       13 1
  13       12       14 ar
  14       14       15 ar
  15       15        8 ar
  16       15       16 1
  17        7       17 2
  18       17       18 1
  19       18        5 1
  20        3       19 1
  21        1       20 1
  22        1       21 1
  23        1       22 1
  24        4       23 1
  25        4       24 1
  26        4       25 1
  27        9       26 1
  28       11       27 1
  29       11       28 1
  30       11       29 1
  31       13       30 1
  32       13       31 1
  33       13       32 1
  34       14       33 1
  35       16       34 1
  36       16       35 1
  37       16       36 1
  38       17       37 1

@<TRIPOS>MOLECULE

  37   38
SMALL
USER_CHARGES
@<TRIPOS>ATOM
   1 C1           5.5855    -0.6152    -0.9098 C.3          1    LIG   0.0000
   2 O2           4.1745    -0.4728    -0.8377 O.3          1    LIG   0.0000
   3 C3           3.7428     0.5802     0.0115 C.3          1    LIG   0.0000
   4 C4           4.2409     0.3275     1.4252 C.3          1    LIG   0.0000
   5 C5           2.2249     0.6400     0.0125 C.2          1    LIG   0.0000
   6 N6           1.3666    -0.3515     0.0150 N.2          1    LIG   0.0000
   7 C7           0.0502     0.0220     0.0093 C.2          1    LIG   0.0000
   8 C8          -1.0651    -0.9051     0.0172 C.ar         1    LIG   0.0000
   9 C9          -2.3572    -0.3896     0.0101 C.ar         1    LIG   0.0000
  10 C10         -3.4496    -1.2506     0.0175 C.ar         1    LIG   0.0000
  11 C11         -4.8471    -0.6523     0.0093 C.3          1    LIG   0.0000
  12 C12         -3.2499    -2.6279     0.0314 C.ar         1    LIG   0.0000
  13 C13         -4.4207    -3.5978     0.0394 C.3          1    LIG   0.0000
  14 C14         -1.9581    -3.1434     0.0385 C.ar         1    LIG   0.0000
  15 C15         -0.8656    -2.2822     0.0317 C.ar         1    LIG   0.0000
  16 C16          0.5312    -2.8823     0.0398 C.3          1    LIG   0.0000
  17 C17         -0.2176     1.3565    -0.0040 C.2          1    LIG   0.0000
  18 S18          1.3241     2.0821    -0.0028 S.3          1    LIG   0.0000
  19 H            4.1104     1.4487    -0.3212 H            1    LIG   0.0000
  20 H            5.8133    -1.3719    -1.5226 H            1    LIG   0.0000
  21 H            5.9884     0.2303    -1.2601 H            1    LIG   0.0000
  22 H            5.9484    -0.8043     0.0026 H            1    LIG   0.0000
  23 H            3.9369     1.0691     2.0232 H            1    LIG   0.0000
  24 H            3.8733    -0.5409     1.7578 H            1    LIG   0.0000
  25 H            5.2401     0.2881     1.4245 H            1    LIG   0.0000
  26 H           -2.5006     0.6001    -0.0004 H            1    LIG   0.0000
  27 H           -4.7825     0.3456    -0.0004 H            1    LIG   0.0000
  28 H           -5.3378    -0.9625    -0.8049 H            1    LIG   0.0000
  29 H           -5.3404    -0.9464     0.8280 H            1    LIG   0.0000
  30 H           -4.0759    -4.5364     0.0492 H            1    LIG   0.0000
  31 H           -4.9792    -3.4394     0.8537 H            1    LIG   0.0000
  32 H           -4.9771    -3.4556    -0.7792 H            1    LIG   0.0000
  33 H           -1.8147    -4.1330     0.0485 H            1    LIG   0.0000
  34 H            0.4652    -3.8801     0.0500 H            1    LIG   0.0000
  35 H            1.0247    -2.5892    -0.7791 H            1    LIG   0.0000
  36 H            1.0224    -2.5724     0.8538 H            1    LIG   0.0000
  37 H           -1.1108     1.8061    -0.0125 H            1    LIG   0.0000
@<TRIPOS>BOND
   1        1        2 1
   2        2        3 1
   3        3        4 1
   4        3        5 1
   5        5        6 2
   6        6        7 1
   7        7        8 1
   8        8        9 ar
   9        9       10 ar
  10       10       11 1
  11       10       12 ar
  12       12       13 1
  13       12       14 ar
  14       14       15 ar
  15       15        8 ar
  16       15       16 1
  17        7       17 2
  18       17       18 1
  19       18        5 1
  20        3       19 1
  21        1       20 1
  22        1       21 1
  23        1       22 1
  24        4       23 1
  25        4       24 1
  26        4       25 1
  27        9       26 1
  28       11       27 1
  29       11       28 1
  30       11       29 1
  31       13       30 1
  32       13       31 1
  33       13       32 1
  34       14       33 1
  35       16       34 1
  36       16       35 1
  37       16       36 1
  38       17       37 1

@<TRIPOS>MOLECULE

  37   38
SMALL
USER_CHARGES
@<TRIPOS>ATOM
   1 C1           5.5855    -0.6152    -0.9098 C.3          1    LIG   0.0000
   2 O2           4.1745    -0.4728    -0.8377 O.3          1    LIG   0.0000
   3 C3           3.7428     0.5802     0.0115 C.3          1    LIG   0.0000
   4 C4           4.2409     0.3275     1.4252 C.3          1    LIG   0.0000
   5 C5           2.2249     0.6400     0.0125 C.2          1    LIG   0.0000
   6 N6           1.3666    -0.3515     0.0150 N.2          1    LIG   0.0000
   7 C7           0.0502     0.0220     0.0093 C.2          1    LIG   0.0000
   8 C8          -1.0651    -0.9051     0.0172 C.ar         1    LIG   0.0000
   9 C9          -1.5741    -1.3421    -1.2014 C.ar         1    LIG   0.0000
  10 C10         -2.6435    -2.2312    -1.2299 C.ar         1    LIG   0.0000
  11 C11         -3.1739    -2.6876    -2.5795 C.3          1    LIG   0.0000
  12 C12         -3.2038    -2.6840    -0.0391 C.ar         1    LIG   0.0000
  13 C13         -4.3729    -3.6560    -0.0332 C.3          1    LIG   0.0000
  14 C14         -2.6949    -2.2471     1.1794 C.ar         1    LIG   0.0000
  15 C15         -1.6258    -1.3574     1.2078 C.ar         1    LIG   0.0000
  16 C16         -1.0967    -0.9021     2.5584 C.3          1    LIG   0.0000
  17 C17         -0.2176     1.3565    -0.0040 C.2          1    LIG   0.0000
  18 S18          1.3241     2.0821    -0.0028 S.3          1    LIG   0.0000
  19 H            4.1104     1.4487    -0.3212 H            1    LIG   0.0000
  20 H            5.8133    -1.3719    -1.5226 H            1    LIG   0.0000
  21 H            5.9884     0.2303    -1.2601 H            1    LIG   0.0000
  22 H            5.9484    -0.8043     0.0026 H            1    LIG   0.0000
  23 H            3.9369     1.0691     2.0232 H            1    LIG   0.0000
  24 H            3.8733    -0.5409     1.7578 H            1    LIG   0.0000
  25 H            5.2401     0.2881     1.4245 H            1    LIG   0.0000
  26 H           -1.1712    -1.0171    -2.0570 H            1    LIG   0.0000
  27 H           -2.6444    -2.2552    -3.3093 H            1    LIG   0.0000
  28 H           -3.0910    -3.6816    -2.6514 H            1    LIG   0.0000
  29 H           -4.1353    -2.4262    -2.6655 H            1    LIG   0.0000
  30 H           -4.6314    -3.8607     0.9109 H            1    LIG   0.0000
  31 H           -5.1500    -3.2456    -0.5102 H            1    LIG   0.0000
  32 H           -4.1060    -4.5012    -0.4964 H            1    LIG   0.0000
  33 H           -3.0976    -2.5724     2.0350 H            1    LIG   0.0000
  34 H           -1.6272    -1.3348     3.2873 H            1    LIG   0.0000
  35 H           -0.1355    -1.1640     2.6453 H            1    LIG   0.0000
  36 H           -1.1793     0.0918     2.6309 H            1    LIG   0.0000
  37 H           -1.1108     1.8061    -0.0125 H            1    LIG   0.0000
@<TRIPOS>BOND
   1        1        2 1
   2        2        3 1
   3        3        4 1
   4        3        5 1
   5        5        6 2
   6        6        7 1
   7        7        8 1
   8        8        9 ar
   9        9       10 ar
  10       10       11 1
  11       10       12 ar
  12       12       13 1
  13       12       14 ar
  14       14       15 ar
  15       15        8 ar
  16       15       16 1
  17        7       17 2
  18       17       18 1
  19       18        5 1
  20        3       19 1
  21        1       20 1
  22        1       21 1
  23        1       22 1
  24        4       23 1
  25        4       24 1
  26        4       25 1
  27        9       26 1
  28       11       27 1
  29       11       28 1
  30       11       29 1
  31       13       30 1
  32       13       31 1
  33       13       32 1
  34       14       33 1
  35       16       34 1
  36       16       35 1
  37       16       36 1
  38       17       37 1

@<TRIPOS>MOLECULE

  37   38
SMALL
USER_CHARGES
@<TRIPOS>ATOM
   1 C1           3.8190     1.0929     2.3362 C.3          1    LIG   0.0000
   2 O2           4.2508     1.4330     1.0269 O.3          1    LIG   0.0000
   3 C3           3.7428     0.5802     0.0115 C.3          1    LIG   0.0000
   4 C4           4.2669     1.0348    -1.3410 C.3          1    LIG   0.0000
   5 C5           2.2249     0.6400     0.0125 C.2          1    LIG   0.0000
   6 N6           1.3666    -0.3515     0.0150 N.2          1    LIG   0.0000
   7 C7           0.0502     0.0220     0.0093 C.2          1    LIG   0.0000
   8 C8          -1.0651    -0.9051     0.0172 C.ar         1    LIG   0.0000
   9 C9          -2.3572    -0.3896     0.0101 C.ar         1    LIG   0.0000
  10 C10         -3.4496    -1.2506     0.0175 C.ar         1    LIG   0.0000
  11 C11         -4.8471    -0.6523     0.0093 C.3          1    LIG   0.0000
  12 C12         -3.2499    -2.6279     0.0314 C.ar         1    LIG   0.0000
  13 C13         -4.4207    -3.5978     0.0394 C.3          1    LIG   0.0000
  14 C14         -1.9581    -3.1434     0.0385 C.ar         1    LIG   0.0000
  15 C15         -0.8656    -2.2822     0.0317 C.ar         1    LIG   0.0000
  16 C16          0.5312    -2.8823     0.0398 C.3          1    LIG   0.0000
  17 C17         -0.2176     1.3565    -0.0040 C.2          1    LIG   0.0000
  18 S18          1.3241     2.0821    -0.0028 S.3          1    LIG   0.0000
  19 H            4.0396    -0.3588     0.1855 H            1    LIG   0.0000
  20 H            4.2144     1.7333     2.9946 H            1    LIG   0.0000
  21 H            2.8212     1.1421     2.3814 H            1    LIG   0.0000
  22 H            4.1171     0.1637     2.5547 H            1    LIG   0.0000
  23 H            3.9092     0.4343    -2.0561 H            1    LIG   0.0000
  24 H            3.9702     1.9738    -1.5149 H            1    LIG   0.0000
  25 H            5.2661     0.9954    -1.3416 H            1    LIG   0.0000
  26 H           -2.5006     0.6001    -0.0004 H            1    LIG   0.0000
  27 H           -4.7825     0.3456    -0.0004 H            1    LIG   0.0000
  28 H           -5.3378    -0.9625    -0.8049 H            1    LIG   0.0000
  29 H           -5.3404    -0.9464     0.8280 H            1    LIG   0.0000
  30 H           -4.0759    -4.5364     0.0492 H            1    LIG   0.0000
  31 H           -4.9792    -3.4394     0.8537 H            1    LIG   0.0000
  32 H           -4.9771    -3.4556    -0.7792 H            1    LIG   0.0000
  33 H           -1.8147    -4.1330     0.0485 H            1    LIG   0.0000
  34 H            0.4652    -3.8801     0.0500 H            1    LIG   0.0000
  35 H            1.0247    -2.5892    -0.7791 H            1    LIG   0.0000
  36 H            1.0224    -2.5724     0.8538 H            1    LIG   0.0000
  37 H           -1.1108     1.8061    -0.0125 H            1    LIG   0.0000
@<TRIPOS>BOND
   1        1        2 1
   2        2        3 1
   3        3        4 1
   4        3        5 1
   5        5        6 2
   6        6        7 1
   7        7        8 1
   8        8        9 ar
   9        9       10 ar
  10       10       11 1
  11       10       12 ar
  12       12       13 1
  13       12       14 ar
  14       14       15 ar
  15       15        8 ar
  16       15       16 1
  17        7       17 2
  18       17       18 1
  19       18        5 1
  20        3       19 1
  21        1       20 1
  22        1       21 1
  23        1       22 1
  24        4       23 1
  25        4       24 1
  26        4       25 1
  27        9       26 1
  28       11       27 1
  29       11       28 1
  30       11       29 1
  31       13       30 1
  32       13       31 1
  33       13       32 1
  34       14       33 1
  35       16       34 1
  36       16       35 1
  37       16       36 1
  38       17       37 1

@<TRIPOS>MOLECULE

  37   38
SMALL
USER_CHARGES
@<TRIPOS>ATOM
   1 C1           3.8190     1.0929     2.3362 C.3          1    LIG   0.0000
   2 O2           4.2508     1.4330     1.0269 O.3          1    LIG   0.0000
   3 C3           3.7428     0.5802     0.0115 C.3          1    LIG   0.0000
   4 C4           4.2669     1.0348    -1.3410 C.3          1    LIG   0.0000
   5 C5           2.2249     0.6400     0.0125 C.2          1    LIG   0.0000
   6 N6           1.3666    -0.3515     0.0150 N.2          1    LIG   0.0000
   7 C7           0.0502     0.0220     0.0093 C.2          1    LIG   0.0000
   8 C8          -1.0651    -0.9051     0.0172 C.ar         1    LIG   0.0000
   9 C9          -1.5741    -1.3421    -1.2014 C.ar         1    LIG   0.0000
  10 C10         -2.6435    -2.2312    -1.2299 C.ar         1    LIG   0.0000
  11 C11         -3.1739    -2.6876    -2.5795 C.3          1    LIG   0.0000
  12 C12         -3.2038    -2.6840    -0.0391 C.ar         1    LIG   0.0000
  13 C13         -4.3729    -3.6560    -0.0332 C.3          1    LIG   0.0000
  14 C14         -2.6949    -2.2471     1.1794 C.ar         1    LIG   0.0000
  15 C15         -1.6258    -1.3574     1.2078 C.ar         1    LIG   0.0000
  16 C16         -1.0967    -0.9021     2.5584 C.3          1    LIG   0.0000
  17 C17         -0.2176     1.3565    -0.0040 C.2          1    LIG   0.0000
  18 S18          1.3241     2.0821    -0.0028 S.3          1    LIG   0.0000
  19 H            4.0396    -0.3588     0.1855 H            1    LIG   0.0000
  20 H            4.2144     1.7333     2.9946 H            1    LIG   0.0000
  21 H            2.8212     1.1421     2.3814 H            1    LIG   0.0000
  22 H            4.1171     0.1637     2.5547 H            1    LIG   0.0000
  23 H            3.9092     0.4343    -2.0561 H            1    LIG   0.0000
  24 H            3.9702     1.9738    -1.5149 H            1    LIG   0.0000
  25 H            5.2661     0.9954    -1.3416 H            1    LIG   0.0000
  26 H           -1.1712    -1.0171    -2.0570 H            1    LIG   0.0000
  27 H           -2.6444    -2.2552    -3.3093 H            1    LIG   0.0000
  28 H           -3.0910    -3.6816    -2.6514 H            1    LIG   0.0000
  29 H           -4.1353    -2.4262    -2.6655 H            1    LIG   0.0000
  30 H           -4.6314    -3.8607     0.9109 H            1    LIG   0.0000
  31 H           -5.1500    -3.2456    -0.5102 H            1    LIG   0.0000
  32 H           -4.1060    -4.5012    -0.4964 H            1    LIG   0.0000
  33 H           -3.0976    -2.5724     2.0350 H            1    LIG   0.0000
  34 H           -1.6272    -1.3348     3.2873 H            1    LIG   0.0000
  35 H           -0.1355    -1.1640     2.6453 H            1    LIG   0.0000
  36 H           -1.1793     0.0918     2.6309 H            1    LIG   0.0000
  37 H           -1.1108     1.8061    -0.0125 H            1    LIG   0.0000
@<TRIPOS>BOND
   1        1        2 1
   2        2        3 1
   3        3        4 1
   4        3        5 1
   5        5        6 2
   6        6        7 1
   7        7        8 1
   8        8        9 ar
   9        9       10 ar
  10       10       11 1
  11       10       12 ar
  12       12       13 1
  13       12       14 ar
  14       14       15 ar
  15       15        8 ar
  16       15       16 1
  17        7       17 2
  18       17       18 1
  19       18        5 1
  20        3       19 1
  21        1       20 1
  22        1       21 1
  23        1       22 1
  24        4       23 1
  25        4       24 1
  26        4       25 1
  27        9       26 1
  28       11       27 1
  29       11       28 1
  30       11       29 1
  31       13       30 1
  32       13       31 1
  33       13       32 1
  34       14       33 1
  35       16       34 1
  36       16       35 1
  37       16       36 1
  38       17       37 1

@<TRIPOS>MOLECULE

  37   38
SMALL
USER_CHARGES
@<TRIPOS>ATOM
   1 C1           5.6682     1.4502     1.1111 C.3          1    LIG   0.0000
   2 O2           4.2508     1.4330     1.0269 O.3          1    LIG   0.0000
   3 C3           3.7428     0.5802     0.0115 C.3          1    LIG   0.0000
   4 C4           4.2669     1.0348    -1.3410 C.3          1    LIG   0.0000
   5 C5           2.2249     0.6400     0.0125 C.2          1    LIG   0.0000
   6 N6           1.3666    -0.3515     0.0150 N.2          1    LIG   0.0000
   7 C7           0.0502     0.0220     0.0093 C.2          1    LIG   0.0000
   8 C8          -1.0651    -0.9051     0.0172 C.ar         1    LIG   0.0000
   9 C9          -1.1837    -1.8104    -1.0323 C.ar         1    LIG   0.0000
  10 C10         -2.2415    -2.7134    -1.0558 C.ar         1    LIG   0.0000
  11 C11         -2.3396    -3.6883    -2.2181 C.3          1    LIG   0.0000
  12 C12         -3.1810    -2.7114    -0.0289 C.ar         1    LIG   0.0000
  13 C13         -4.3493    -3.6843    -0.0226 C.3          1    LIG   0.0000
  14 C14         -3.0625    -1.8062     1.0205 C.ar         1    LIG   0.0000
  15 C15         -2.0049    -0.9028     1.0436 C.ar         1    LIG   0.0000
  16 C16         -1.9083     0.0714     2.2068 C.3          1    LIG   0.0000
  17 C17         -0.2176     1.3565    -0.0040 C.2          1    LIG   0.0000
  18 S18          1.3241     2.0821    -0.0028 S.3          1    LIG   0.0000
  19 H            4.0396    -0.3588     0.1855 H            1    LIG   0.0000
  20 H            5.9511     2.0689     1.8440 H            1    LIG   0.0000
  21 H            6.0018     0.5279     1.3061 H            1    LIG   0.0000
  22 H            6.0499     1.7660     0.2424 H            1    LIG   0.0000
  23 H            3.9092     0.4343    -2.0561 H            1    LIG   0.0000
  24 H            3.9702     1.9738    -1.5149 H            1    LIG   0.0000
  25 H            5.2661     0.9954    -1.3416 H            1    LIG   0.0000
  26 H           -0.5084    -1.8121    -1.7698 H            1    LIG   0.0000
  27 H           -1.5781    -3.5341    -2.8477 H            1    LIG   0.0000
  28 H           -2.3010    -4.6254    -1.8713 H            1    LIG   0.0000
  29 H           -3.2044    -3.5466    -2.6999 H            1    LIG   0.0000
  30 H           -4.9089    -3.5279     0.7913 H            1    LIG   0.0000
  31 H           -4.9053    -3.5429    -0.8416 H            1    LIG   0.0000
  32 H           -4.0021    -4.6221    -0.0132 H            1    LIG   0.0000
  33 H           -3.7376    -1.8048     1.7582 H            1    LIG   0.0000
  34 H           -2.6705    -0.0834     2.8353 H            1    LIG   0.0000
  35 H           -1.0441    -0.0704     2.6895 H            1    LIG   0.0000
  36 H           -1.9469     1.0087     1.8606 H            1    LIG   0.0000
  37 H           -1.1108     1.8061    -0.0125 H            1    LIG   0.0000
@<TRIPOS>BOND
   1        1        2 1
   2        2        3 1
   3        3        4 1
   4        3        5 1
   5        5        6 2
   6        6        7 1
   7        7        8 1
   8        8        9 ar
   9        9       10 ar
  10       10       11 1
  11       10       12 ar
  12       12       13 1
  13       12       14 ar
  14       14       15 ar
  15       15        8 ar
  16       15       16 1
  17        7       17 2
  18       17       18 1
  19       18        5 1
  20        3       19 1
  21        1       20 1
  22        1       21 1
  23        1       22 1
  24        4       23 1
  25        4       24 1
  26        4       25 1
  27        9       26 1
  28       11       27 1
  29       11       28 1
  30       11       29 1
  31       13       30 1
  32       13       31 1
  33       13       32 1
  34       14       33 1
  35       16       34 1
  36       16       35 1
  37       16       36 1
  38       17       37 1

