@<TRIPOS>MOLECULE
*****
 37 38 0 0 0
SMALL
USER_CHARGES

@<TRIPOS>ATOM
      1 C1          5.6219    0.2702    1.4419 C.3     1  LIG1        0.0000
      2 O2          4.2081    0.3441    1.3322 O.3     1  LIG1        0.0000
      3 C3          3.7428    0.5802    0.0115 C.3     1  LIG1        0.0000
      4 C4          4.3016    1.9002   -0.4942 C.3     1  LIG1        0.0000
      5 C5          2.2249    0.6400    0.0125 C.2     1  LIG1        0.0000
      6 N6          1.3666   -0.3515    0.0150 N.2     1  LIG1        0.0000
      7 C7          0.0502    0.0220    0.0093 C.2     1  LIG1        0.0000
      8 C8         -1.0651   -0.9051    0.0172 C.ar    1  LIG1        0.0000
      9 C9         -1.1867   -1.7886    1.0848 C.ar    1  LIG1        0.0000
     10 C10        -2.2445   -2.6910    1.1238 C.ar    1  LIG1        0.0000
     11 C11        -2.3460   -3.6419    2.3056 C.3     1  LIG1        0.0000
     12 C12        -3.1817   -2.7095    0.0950 C.ar    1  LIG1        0.0000
     13 C13        -4.3503   -3.6820    0.1056 C.3     1  LIG1        0.0000
     14 C14        -3.0602   -1.8261   -0.9724 C.ar    1  LIG1        0.0000
     15 C15        -2.0019   -0.9240   -1.0117 C.ar    1  LIG1        0.0000
     16 C16        -1.9021    0.0261   -2.1943 C.3     1  LIG1        0.0000
     17 C17        -0.2176    1.3565   -0.0040 C.2     1  LIG1        0.0000
     18 S18         1.3241    2.0821   -0.0028 S.3     1  LIG1        0.0000
     19 H           4.0468   -0.1614   -0.5866 H       1  LIG1        0.0000
     20 H           5.8741    0.1031    2.3950 H       1  LIG1        0.0000
     21 H           5.9619   -0.4773    0.8712 H       1  LIG1        0.0000
     22 H           6.0255    1.1327    1.1366 H       1  LIG1        0.0000
     23 H           3.9739    2.0665   -1.4242 H       1  LIG1        0.0000
     24 H           3.9976    2.6418    0.1039 H       1  LIG1        0.0000
     25 H           5.3008    1.8609   -0.4949 H       1  LIG1        0.0000
     26 H          -0.5136   -1.7750    1.8242 H       1  LIG1        0.0000
     27 H          -1.5858   -3.4753    2.9336 H       1  LIG1        0.0000
     28 H          -3.2117   -3.4897    2.7825 H       1  LIG1        0.0000
     29 H          -2.3072   -4.5859    1.9782 H       1  LIG1        0.0000
     30 H          -4.9080   -3.5419   -0.7125 H       1  LIG1        0.0000
     31 H          -4.0033   -4.6199    0.1159 H       1  LIG1        0.0000
     32 H          -4.9081   -3.5240    0.9204 H       1  LIG1        0.0000
     33 H          -3.7336   -1.8394   -1.7116 H       1  LIG1        0.0000
     34 H          -2.6625   -0.1416   -2.8217 H       1  LIG1        0.0000
     35 H          -1.9417    0.9704   -1.8675 H       1  LIG1        0.0000
     36 H          -1.0365   -0.1255   -2.6715 H       1  LIG1        0.0000
     37 H          -1.1108    1.8061   -0.0125 H       1  LIG1        0.0000
@<TRIPOS>BOND
     1     1     2    1
     2     2     3    1
     3     3     4    1
     4     3     5    1
     5     5     6    2
     6     6     7    1
     7     7     8    1
     8     8     9   ar
     9     9    10   ar
    10    10    11    1
    11    10    12   ar
    12    12    13    1
    13    12    14   ar
    14    14    15   ar
    15    15     8   ar
    16    15    16    1
    17     7    17    2
    18    17    18    1
    19    18     5    1
    20     3    19    1
    21     1    20    1
    22     1    21    1
    23     1    22    1
    24     4    23    1
    25     4    24    1
    26     4    25    1
    27     9    26    1
    28    11    27    1
    29    11    28    1
    30    11    29    1
    31    13    30    1
    32    13    31    1
    33    13    32    1
    34    14    33    1
    35    16    34    1
    36    16    35    1
    37    16    36    1
    38    17    37    1
