@<TRIPOS>MOLECULE
*****
 37 38 0 0 0
SMALL
USER_CHARGES

@<TRIPOS>ATOM
      1 C1          5.6682    1.4502    1.1111 C.3     1  LIG1        0.0000
      2 O2          4.2508    1.4330    1.0269 O.3     1  LIG1        0.0000
      3 C3          3.7428    0.5802    0.0115 C.3     1  LIG1        0.0000
      4 C4          4.2669    1.0348   -1.3410 C.3     1  LIG1        0.0000
      5 C5          2.2249    0.6400    0.0125 C.2     1  LIG1        0.0000
      6 N6          1.3666   -0.3515    0.0150 N.2     1  LIG1        0.0000
      7 C7          0.0502    0.0220    0.0093 C.2     1  LIG1        0.0000
      8 C8         -1.0651   -0.9051    0.0172 C.ar    1  LIG1        0.0000
      9 C9         -1.1837   -1.8104   -1.0323 C.ar    1  LIG1        0.0000
     10 C10        -2.2415   -2.7134   -1.0558 C.ar    1  LIG1        0.0000
     11 C11        -2.3396   -3.6883   -2.2181 C.3     1  LIG1        0.0000
     12 C12        -3.1810   -2.7114   -0.0289 C.ar    1  LIG1        0.0000
     13 C13        -4.3493   -3.6843   -0.0226 C.3     1  LIG1        0.0000
     14 C14        -3.0625   -1.8062    1.0205 C.ar    1  LIG1        0.0000
     15 C15        -2.0049   -0.9028    1.0436 C.ar    1  LIG1        0.0000
     16 C16        -1.9083    0.0714    2.2068 C.3     1  LIG1        0.0000
     17 C17        -0.2176    1.3565   -0.0040 C.2     1  LIG1        0.0000
     18 S18         1.3241    2.0821   -0.0028 S.3     1  LIG1        0.0000
     19 H           4.0396   -0.3588    0.1855 H       1  LIG1        0.0000
     20 H           5.9511    2.0689    1.8440 H       1  LIG1        0.0000
     21 H           6.0018    0.5279    1.3061 H       1  LIG1        0.0000
     22 H           6.0499    1.7660    0.2424 H       1  LIG1        0.0000
     23 H           3.9092    0.4343   -2.0561 H       1  LIG1        0.0000
     24 H           3.9702    1.9738   -1.5149 H       1  LIG1        0.0000
     25 H           5.2661    0.9954   -1.3416 H       1  LIG1        0.0000
     26 H          -0.5084   -1.8121   -1.7698 H       1  LIG1        0.0000
     27 H          -1.5781   -3.5341   -2.8477 H       1  LIG1        0.0000
     28 H          -2.3010   -4.6254   -1.8713 H       1  LIG1        0.0000
     29 H          -3.2044   -3.5466   -2.6999 H       1  LIG1        0.0000
     30 H          -4.9089   -3.5279    0.7913 H       1  LIG1        0.0000
     31 H          -4.9053   -3.5429   -0.8416 H       1  LIG1        0.0000
     32 H          -4.0021   -4.6221   -0.0132 H       1  LIG1        0.0000
     33 H          -3.7376   -1.8048    1.7582 H       1  LIG1        0.0000
     34 H          -2.6705   -0.0834    2.8353 H       1  LIG1        0.0000
     35 H          -1.0441   -0.0704    2.6895 H       1  LIG1        0.0000
     36 H          -1.9469    1.0087    1.8606 H       1  LIG1        0.0000
     37 H          -1.1108    1.8061   -0.0125 H       1  LIG1        0.0000
@<TRIPOS>BOND
     1     1     2    1
     2     2     3    1
     3     3     4    1
     4     3     5    1
     5     5     6    2
     6     6     7    1
     7     7     8    1
     8     8     9   ar
     9     9    10   ar
    10    10    11    1
    11    10    12   ar
    12    12    13    1
    13    12    14   ar
    14    14    15   ar
    15    15     8   ar
    16    15    16    1
    17     7    17    2
    18    17    18    1
    19    18     5    1
    20     3    19    1
    21     1    20    1
    22     1    21    1
    23     1    22    1
    24     4    23    1
    25     4    24    1
    26     4    25    1
    27     9    26    1
    28    11    27    1
    29    11    28    1
    30    11    29    1
    31    13    30    1
    32    13    31    1
    33    13    32    1
    34    14    33    1
    35    16    34    1
    36    16    35    1
    37    16    36    1
    38    17    37    1
