@<TRIPOS>MOLECULE
*****
 37 38 0 0 0
SMALL
USER_CHARGES

@<TRIPOS>ATOM
      1 C1          5.5855   -0.6152   -0.9098 C.3     1  LIG1        0.0000
      2 O2          4.1745   -0.4728   -0.8377 O.3     1  LIG1        0.0000
      3 C3          3.7428    0.5802    0.0115 C.3     1  LIG1        0.0000
      4 C4          4.2409    0.3275    1.4252 C.3     1  LIG1        0.0000
      5 C5          2.2249    0.6400    0.0125 C.2     1  LIG1        0.0000
      6 N6          1.3666   -0.3515    0.0150 N.2     1  LIG1        0.0000
      7 C7          0.0502    0.0220    0.0093 C.2     1  LIG1        0.0000
      8 C8         -1.0651   -0.9051    0.0172 C.ar    1  LIG1        0.0000
      9 C9         -1.5741   -1.3421   -1.2014 C.ar    1  LIG1        0.0000
     10 C10        -2.6435   -2.2312   -1.2299 C.ar    1  LIG1        0.0000
     11 C11        -3.1739   -2.6876   -2.5795 C.3     1  LIG1        0.0000
     12 C12        -3.2038   -2.6840   -0.0391 C.ar    1  LIG1        0.0000
     13 C13        -4.3729   -3.6560   -0.0332 C.3     1  LIG1        0.0000
     14 C14        -2.6949   -2.2471    1.1794 C.ar    1  LIG1        0.0000
     15 C15        -1.6258   -1.3574    1.2078 C.ar    1  LIG1        0.0000
     16 C16        -1.0967   -0.9021    2.5584 C.3     1  LIG1        0.0000
     17 C17        -0.2176    1.3565   -0.0040 C.2     1  LIG1        0.0000
     18 S18         1.3241    2.0821   -0.0028 S.3     1  LIG1        0.0000
     19 H           4.1104    1.4487   -0.3212 H       1  LIG1        0.0000
     20 H           5.8133   -1.3719   -1.5226 H       1  LIG1        0.0000
     21 H           5.9884    0.2303   -1.2601 H       1  LIG1        0.0000
     22 H           5.9484   -0.8043    0.0026 H       1  LIG1        0.0000
     23 H           3.9369    1.0691    2.0232 H       1  LIG1        0.0000
     24 H           3.8733   -0.5409    1.7578 H       1  LIG1        0.0000
     25 H           5.2401    0.2881    1.4245 H       1  LIG1        0.0000
     26 H          -1.1712   -1.0171   -2.0570 H       1  LIG1        0.0000
     27 H          -2.6444   -2.2552   -3.3093 H       1  LIG1        0.0000
     28 H          -3.0910   -3.6816   -2.6514 H       1  LIG1        0.0000
     29 H          -4.1353   -2.4262   -2.6655 H       1  LIG1        0.0000
     30 H          -4.6314   -3.8607    0.9109 H       1  LIG1        0.0000
     31 H          -5.1500   -3.2456   -0.5102 H       1  LIG1        0.0000
     32 H          -4.1060   -4.5012   -0.4964 H       1  LIG1        0.0000
     33 H          -3.0976   -2.5724    2.0350 H       1  LIG1        0.0000
     34 H          -1.6272   -1.3348    3.2873 H       1  LIG1        0.0000
     35 H          -0.1355   -1.1640    2.6453 H       1  LIG1        0.0000
     36 H          -1.1793    0.0918    2.6309 H       1  LIG1        0.0000
     37 H          -1.1108    1.8061   -0.0125 H       1  LIG1        0.0000
@<TRIPOS>BOND
     1     1     2    1
     2     2     3    1
     3     3     4    1
     4     3     5    1
     5     5     6    2
     6     6     7    1
     7     7     8    1
     8     8     9   ar
     9     9    10   ar
    10    10    11    1
    11    10    12   ar
    12    12    13    1
    13    12    14   ar
    14    14    15   ar
    15    15     8   ar
    16    15    16    1
    17     7    17    2
    18    17    18    1
    19    18     5    1
    20     3    19    1
    21     1    20    1
    22     1    21    1
    23     1    22    1
    24     4    23    1
    25     4    24    1
    26     4    25    1
    27     9    26    1
    28    11    27    1
    29    11    28    1
    30    11    29    1
    31    13    30    1
    32    13    31    1
    33    13    32    1
    34    14    33    1
    35    16    34    1
    36    16    35    1
    37    16    36    1
    38    17    37    1
