@<TRIPOS>MOLECULE
*****
 37 38 0 0 0
SMALL
USER_CHARGES

@<TRIPOS>ATOM
      1 C1          5.6657    1.4252   -1.1117 C.3     1  LIG1        0.0000
      2 O2          4.2485    1.4098   -1.0241 O.3     1  LIG1        0.0000
      3 C3          3.7428    0.5802    0.0115 C.3     1  LIG1        0.0000
      4 C4          4.1933   -0.8527   -0.2217 C.3     1  LIG1        0.0000
      5 C5          2.2249    0.6400    0.0125 C.2     1  LIG1        0.0000
      6 N6          1.3666   -0.3515    0.0150 N.2     1  LIG1        0.0000
      7 C7          0.0502    0.0220    0.0093 C.2     1  LIG1        0.0000
      8 C8         -1.0651   -0.9051    0.0172 C.ar    1  LIG1        0.0000
      9 C9         -1.5776   -1.3169    1.2432 C.ar    1  LIG1        0.0000
     10 C10        -2.6470   -2.2054    1.2869 C.ar    1  LIG1        0.0000
     11 C11        -3.1812   -2.6340    2.6441 C.3     1  LIG1        0.0000
     12 C12        -3.2046   -2.6818    0.1040 C.ar    1  LIG1        0.0000
     13 C13        -4.3740   -3.6534    0.1148 C.3     1  LIG1        0.0000
     14 C14        -2.6923   -2.2700   -1.1218 C.ar    1  LIG1        0.0000
     15 C15        -1.6224   -1.3819   -1.1654 C.ar    1  LIG1        0.0000
     16 C16        -1.0895   -0.9544   -2.5235 C.3     1  LIG1        0.0000
     17 C17        -0.2176    1.3565   -0.0040 C.2     1  LIG1        0.0000
     18 S18         1.3241    2.0821   -0.0028 S.3     1  LIG1        0.0000
     19 H           4.0896    0.8993    0.8935 H       1  LIG1        0.0000
     20 H           5.9470    2.0272   -1.8590 H       1  LIG1        0.0000
     21 H           6.0493    1.7604   -0.2512 H       1  LIG1        0.0000
     22 H           5.9989    0.4987   -1.2867 H       1  LIG1        0.0000
     23 H           3.8372   -1.4369    0.5075 H       1  LIG1        0.0000
     24 H           3.8465   -1.1717   -1.1038 H       1  LIG1        0.0000
     25 H           5.1925   -0.8920   -0.2224 H       1  LIG1        0.0000
     26 H          -1.1772   -0.9743    2.0930 H       1  LIG1        0.0000
     27 H          -2.6532   -2.1874    3.3663 H       1  LIG1        0.0000
     28 H          -4.1426   -2.3702    2.7223 H       1  LIG1        0.0000
     29 H          -3.0993   -3.6264    2.7363 H       1  LIG1        0.0000
     30 H          -4.6304   -3.8768   -0.8256 H       1  LIG1        0.0000
     31 H          -4.1085   -4.4892    0.5955 H       1  LIG1        0.0000
     32 H          -5.1522   -3.2333    0.5817 H       1  LIG1        0.0000
     33 H          -3.0930   -2.6124   -1.9716 H       1  LIG1        0.0000
     34 H          -1.6180   -1.4020   -3.2449 H       1  LIG1        0.0000
     35 H          -1.1719    0.0378   -2.6167 H       1  LIG1        0.0000
     36 H          -0.1281   -1.2179   -2.6023 H       1  LIG1        0.0000
     37 H          -1.1108    1.8061   -0.0125 H       1  LIG1        0.0000
@<TRIPOS>BOND
     1     1     2    1
     2     2     3    1
     3     3     4    1
     4     3     5    1
     5     5     6    2
     6     6     7    1
     7     7     8    1
     8     8     9   ar
     9     9    10   ar
    10    10    11    1
    11    10    12   ar
    12    12    13    1
    13    12    14   ar
    14    14    15   ar
    15    15     8   ar
    16    15    16    1
    17     7    17    2
    18    17    18    1
    19    18     5    1
    20     3    19    1
    21     1    20    1
    22     1    21    1
    23     1    22    1
    24     4    23    1
    25     4    24    1
    26     4    25    1
    27     9    26    1
    28    11    27    1
    29    11    28    1
    30    11    29    1
    31    13    30    1
    32    13    31    1
    33    13    32    1
    34    14    33    1
    35    16    34    1
    36    16    35    1
    37    16    36    1
    38    17    37    1
