@<TRIPOS>MOLECULE

  33   34
SMALL
USER_CHARGES
@<TRIPOS>ATOM
   1 C1          -0.8198    -2.8145    -1.4973 C.3          1    LIG   0.0000
   2 C2          -0.4795    -2.1029    -0.1978 C.ar         1    LIG   0.0000
   3 C3          -0.7789    -2.7316     1.0052 C.ar         1    LIG   0.0000
   4 C4          -0.4788    -2.1015     2.2086 C.ar         1    LIG   0.0000
   5 C5           0.1186    -0.8463     2.2057 C.ar         1    LIG   0.0000
   6 C6           0.4463    -0.1602     3.5220 C.3          1    LIG   0.0000
   7 C7           0.4186    -0.2189     1.0000 C.ar         1    LIG   0.0000
   8 O8           1.0000     1.0000     1.0000 O.3          1    LIG   0.0000
   9 C9           2.4200     1.0000     1.0000 C.3          1    LIG   0.0000
  10 C10          2.9268     2.4335     1.0000 C.2          1    LIG   0.0000
  11 N11          3.1932     3.1869    -0.1029 N.2          1    LIG   0.0000
  12 N12          3.5883     4.3096     0.3139 N.2          1    LIG   0.0000
  13 N13          3.5936     4.3225     1.6244 N.pl3        1    LIG   0.0000
  14 C14          3.9967     5.4593     2.4634 C.3          1    LIG   0.0000
  15 N15          3.1810     3.1592     2.0619 N.2          1    LIG   0.0000
  16 C16          0.1192    -0.8467    -0.2053 C.ar         1    LIG   0.0000
  17 C17          0.4551    -0.1423    -1.5101 C.3          1    LIG   0.0000
  18 H           -1.2408    -3.6983    -1.2930 H            1    LIG   0.0000
  19 H           -1.4582    -2.2554    -2.0262 H            1    LIG   0.0000
  20 H            0.0159    -2.9580    -2.0274 H            1    LIG   0.0000
  21 H           -1.2088    -3.6344     1.0057 H            1    LIG   0.0000
  22 H           -0.6929    -2.5514     3.0756 H            1    LIG   0.0000
  23 H            0.1661    -0.7463     4.2822 H            1    LIG   0.0000
  24 H            1.4309     0.0065     3.5749 H            1    LIG   0.0000
  25 H           -0.0425     0.7106     3.5747 H            1    LIG   0.0000
  26 H            2.7533     0.5286     0.1835 H            1    LIG   0.0000
  27 H            2.7533     0.5286     1.8165 H            1    LIG   0.0000
  28 H            3.9088     5.2095     3.4277 H            1    LIG   0.0000
  29 H            4.9475     5.6984     2.2663 H            1    LIG   0.0000
  30 H            3.4082     6.2436     2.2672 H            1    LIG   0.0000
  31 H            0.1804    -0.7182    -2.2801 H            1    LIG   0.0000
  32 H           -0.0341     0.7288    -1.5542 H            1    LIG   0.0000
  33 H            1.4399     0.0258    -1.5542 H            1    LIG   0.0000
@<TRIPOS>BOND
   1        1        2 1
   2        2        3 ar
   3        3        4 ar
   4        4        5 ar
   5        5        6 1
   6        5        7 ar
   7        7        8 1
   8        8        9 1
   9        9       10 1
  10       10       11 1
  11       11       12 2
  12       12       13 1
  13       13       14 1
  14       13       15 1
  15       15       10 2
  16        7       16 ar
  17       16        2 ar
  18       16       17 1
  19        1       18 1
  20        1       19 1
  21        1       20 1
  22        3       21 1
  23        4       22 1
  24        6       23 1
  25        6       24 1
  26        6       25 1
  27        9       26 1
  28        9       27 1
  29       14       28 1
  30       14       29 1
  31       14       30 1
  32       17       31 1
  33       17       32 1
  34       17       33 1

@<TRIPOS>MOLECULE

  33   34
SMALL
USER_CHARGES
@<TRIPOS>ATOM
   1 C1          -0.8192    -2.8148     3.4973 C.3          1    LIG   0.0000
   2 C2          -0.4803    -2.1025     2.1978 C.ar         1    LIG   0.0000
   3 C3          -0.7805    -2.7308     0.9948 C.ar         1    LIG   0.0000
   4 C4          -0.4797    -2.1011    -0.2086 C.ar         1    LIG   0.0000
   5 C5           0.1198    -0.8469    -0.2057 C.ar         1    LIG   0.0000
   6 C6           0.4468    -0.1604    -1.5220 C.3          1    LIG   0.0000
   7 C7           0.4186    -0.2189     1.0000 C.ar         1    LIG   0.0000
   8 O8           1.0000     1.0000     1.0000 O.3          1    LIG   0.0000
   9 C9           2.4200     1.0000     1.0000 C.3          1    LIG   0.0000
  10 C10          2.9268     2.4335     1.0000 C.2          1    LIG   0.0000
  11 N11          3.1932     3.1869    -0.1029 N.2          1    LIG   0.0000
  12 N12          3.5883     4.3096     0.3139 N.2          1    LIG   0.0000
  13 N13          3.5936     4.3225     1.6244 N.pl3        1    LIG   0.0000
  14 C14          3.9967     5.4593     2.4634 C.3          1    LIG   0.0000
  15 N15          3.1810     3.1592     2.0619 N.2          1    LIG   0.0000
  16 C16          0.1192    -0.8467     2.2053 C.ar         1    LIG   0.0000
  17 C17          0.4552    -0.1424     3.5101 C.3          1    LIG   0.0000
  18 H           -1.2411    -3.6981     3.2930 H            1    LIG   0.0000
  19 H            0.0171    -2.9591     4.0262 H            1    LIG   0.0000
  20 H           -1.4566    -2.2556     4.0274 H            1    LIG   0.0000
  21 H           -1.2116    -3.6331     0.9943 H            1    LIG   0.0000
  22 H           -0.6946    -2.5506    -1.0756 H            1    LIG   0.0000
  23 H            0.1677    -0.7471    -2.2822 H            1    LIG   0.0000
  24 H           -0.0433     0.7096    -1.5749 H            1    LIG   0.0000
  25 H            1.4312     0.0077    -1.5747 H            1    LIG   0.0000
  26 H            2.7533     0.5286     0.1835 H            1    LIG   0.0000
  27 H            2.7533     0.5286     1.8165 H            1    LIG   0.0000
  28 H            3.9088     5.2095     3.4277 H            1    LIG   0.0000
  29 H            4.9475     5.6984     2.2663 H            1    LIG   0.0000
  30 H            3.4082     6.2436     2.2672 H            1    LIG   0.0000
  31 H            0.1805    -0.7182     4.2801 H            1    LIG   0.0000
  32 H            1.4400     0.0257     3.5542 H            1    LIG   0.0000
  33 H           -0.0339     0.7288     3.5542 H            1    LIG   0.0000
@<TRIPOS>BOND
   1        1        2 1
   2        2        3 ar
   3        3        4 ar
   4        4        5 ar
   5        5        6 1
   6        5        7 ar
   7        7        8 1
   8        8        9 1
   9        9       10 1
  10       10       11 1
  11       11       12 2
  12       12       13 1
  13       13       14 1
  14       13       15 1
  15       15       10 2
  16        7       16 ar
  17       16        2 ar
  18       16       17 1
  19        1       18 1
  20        1       19 1
  21        1       20 1
  22        3       21 1
  23        4       22 1
  24        6       23 1
  25        6       24 1
  26        6       25 1
  27        9       26 1
  28        9       27 1
  29       14       28 1
  30       14       29 1
  31       14       30 1
  32       17       31 1
  33       17       32 1
  34       17       33 1

@<TRIPOS>MOLECULE

  33   34
SMALL
USER_CHARGES
@<TRIPOS>ATOM
   1 C1          -0.8198    -2.8145    -1.4973 C.3          1    LIG   0.0000
   2 C2          -0.4795    -2.1029    -0.1978 C.ar         1    LIG   0.0000
   3 C3          -0.7789    -2.7316     1.0052 C.ar         1    LIG   0.0000
   4 C4          -0.4788    -2.1015     2.2086 C.ar         1    LIG   0.0000
   5 C5           0.1186    -0.8463     2.2057 C.ar         1    LIG   0.0000
   6 C6           0.4463    -0.1602     3.5220 C.3          1    LIG   0.0000
   7 C7           0.4186    -0.2189     1.0000 C.ar         1    LIG   0.0000
   8 O8           1.0000     1.0000     1.0000 O.3          1    LIG   0.0000
   9 C9           2.4200     1.0000     1.0000 C.3          1    LIG   0.0000
  10 C10          2.9268     2.4335     1.0000 C.2          1    LIG   0.0000
  11 N11          2.1534     3.5546     1.0000 N.2          1    LIG   0.0000
  12 N12          2.9431     4.5378     1.0018 N.2          1    LIG   0.0000
  13 N13          4.1833     4.1140     1.0011 N.pl3        1    LIG   0.0000
  14 C14          5.3763     4.9715     0.9999 C.3          1    LIG   0.0000
  15 N15          4.1843     2.8044     1.0023 N.2          1    LIG   0.0000
  16 C16          0.1192    -0.8467    -0.2053 C.ar         1    LIG   0.0000
  17 C17          0.4551    -0.1423    -1.5101 C.3          1    LIG   0.0000
  18 H           -1.2408    -3.6983    -1.2930 H            1    LIG   0.0000
  19 H           -1.4582    -2.2554    -2.0262 H            1    LIG   0.0000
  20 H            0.0159    -2.9580    -2.0274 H            1    LIG   0.0000
  21 H           -1.2088    -3.6344     1.0057 H            1    LIG   0.0000
  22 H           -0.6929    -2.5514     3.0756 H            1    LIG   0.0000
  23 H            0.1661    -0.7463     4.2822 H            1    LIG   0.0000
  24 H            1.4309     0.0065     3.5749 H            1    LIG   0.0000
  25 H           -0.0425     0.7106     3.5747 H            1    LIG   0.0000
  26 H            2.7533     0.5286     0.1835 H            1    LIG   0.0000
  27 H            2.7533     0.5286     1.8165 H            1    LIG   0.0000
  28 H            6.1972     4.4005     0.9996 H            1    LIG   0.0000
  29 H            5.3713     5.5485     0.1832 H            1    LIG   0.0000
  30 H            5.3724     5.5491     1.8162 H            1    LIG   0.0000
  31 H            0.1804    -0.7182    -2.2801 H            1    LIG   0.0000
  32 H           -0.0341     0.7288    -1.5542 H            1    LIG   0.0000
  33 H            1.4399     0.0258    -1.5542 H            1    LIG   0.0000
@<TRIPOS>BOND
   1        1        2 1
   2        2        3 ar
   3        3        4 ar
   4        4        5 ar
   5        5        6 1
   6        5        7 ar
   7        7        8 1
   8        8        9 1
   9        9       10 1
  10       10       11 1
  11       11       12 2
  12       12       13 1
  13       13       14 1
  14       13       15 1
  15       15       10 2
  16        7       16 ar
  17       16        2 ar
  18       16       17 1
  19        1       18 1
  20        1       19 1
  21        1       20 1
  22        3       21 1
  23        4       22 1
  24        6       23 1
  25        6       24 1
  26        6       25 1
  27        9       26 1
  28        9       27 1
  29       14       28 1
  30       14       29 1
  31       14       30 1
  32       17       31 1
  33       17       32 1
  34       17       33 1

@<TRIPOS>MOLECULE

  33   34
SMALL
USER_CHARGES
@<TRIPOS>ATOM
   1 C1          -0.8192    -2.8148     3.4973 C.3          1    LIG   0.0000
   2 C2          -0.4803    -2.1025     2.1978 C.ar         1    LIG   0.0000
   3 C3          -0.7805    -2.7308     0.9948 C.ar         1    LIG   0.0000
   4 C4          -0.4797    -2.1011    -0.2086 C.ar         1    LIG   0.0000
   5 C5           0.1198    -0.8469    -0.2057 C.ar         1    LIG   0.0000
   6 C6           0.4468    -0.1604    -1.5220 C.3          1    LIG   0.0000
   7 C7           0.4186    -0.2189     1.0000 C.ar         1    LIG   0.0000
   8 O8           1.0000     1.0000     1.0000 O.3          1    LIG   0.0000
   9 C9           2.4200     1.0000     1.0000 C.3          1    LIG   0.0000
  10 C10          2.9268     2.4335     1.0000 C.2          1    LIG   0.0000
  11 N11          2.1534     3.5546     1.0000 N.2          1    LIG   0.0000
  12 N12          2.9431     4.5378     1.0018 N.2          1    LIG   0.0000
  13 N13          4.1833     4.1140     1.0011 N.pl3        1    LIG   0.0000
  14 C14          5.3763     4.9715     0.9999 C.3          1    LIG   0.0000
  15 N15          4.1843     2.8044     1.0023 N.2          1    LIG   0.0000
  16 C16          0.1192    -0.8467     2.2053 C.ar         1    LIG   0.0000
  17 C17          0.4552    -0.1424     3.5101 C.3          1    LIG   0.0000
  18 H           -1.2411    -3.6981     3.2930 H            1    LIG   0.0000
  19 H            0.0171    -2.9591     4.0262 H            1    LIG   0.0000
  20 H           -1.4566    -2.2556     4.0274 H            1    LIG   0.0000
  21 H           -1.2116    -3.6331     0.9943 H            1    LIG   0.0000
  22 H           -0.6946    -2.5506    -1.0756 H            1    LIG   0.0000
  23 H            0.1677    -0.7471    -2.2822 H            1    LIG   0.0000
  24 H           -0.0433     0.7096    -1.5749 H            1    LIG   0.0000
  25 H            1.4312     0.0077    -1.5747 H            1    LIG   0.0000
  26 H            2.7533     0.5286     0.1835 H            1    LIG   0.0000
  27 H            2.7533     0.5286     1.8165 H            1    LIG   0.0000
  28 H            6.1972     4.4005     0.9996 H            1    LIG   0.0000
  29 H            5.3713     5.5485     0.1832 H            1    LIG   0.0000
  30 H            5.3724     5.5491     1.8162 H            1    LIG   0.0000
  31 H            0.1805    -0.7182     4.2801 H            1    LIG   0.0000
  32 H            1.4400     0.0257     3.5542 H            1    LIG   0.0000
  33 H           -0.0339     0.7288     3.5542 H            1    LIG   0.0000
@<TRIPOS>BOND
   1        1        2 1
   2        2        3 ar
   3        3        4 ar
   4        4        5 ar
   5        5        6 1
   6        5        7 ar
   7        7        8 1
   8        8        9 1
   9        9       10 1
  10       10       11 1
  11       11       12 2
  12       12       13 1
  13       13       14 1
  14       13       15 1
  15       15       10 2
  16        7       16 ar
  17       16        2 ar
  18       16       17 1
  19        1       18 1
  20        1       19 1
  21        1       20 1
  22        3       21 1
  23        4       22 1
  24        6       23 1
  25        6       24 1
  26        6       25 1
  27        9       26 1
  28        9       27 1
  29       14       28 1
  30       14       29 1
  31       14       30 1
  32       17       31 1
  33       17       32 1
  34       17       33 1

@<TRIPOS>MOLECULE

  33   34
SMALL
USER_CHARGES
@<TRIPOS>ATOM
   1 C1          -0.8198    -2.8145    -1.4973 C.3          1    LIG   0.0000
   2 C2          -0.4795    -2.1029    -0.1978 C.ar         1    LIG   0.0000
   3 C3          -0.7789    -2.7316     1.0052 C.ar         1    LIG   0.0000
   4 C4          -0.4788    -2.1015     2.2086 C.ar         1    LIG   0.0000
   5 C5           0.1186    -0.8463     2.2057 C.ar         1    LIG   0.0000
   6 C6           0.4463    -0.1602     3.5220 C.3          1    LIG   0.0000
   7 C7           0.4186    -0.2189     1.0000 C.ar         1    LIG   0.0000
   8 O8           1.0000     1.0000     1.0000 O.3          1    LIG   0.0000
   9 C9           2.4200     1.0000     1.0000 C.3          1    LIG   0.0000
  10 C10          2.9268     2.4335     1.0000 C.2          1    LIG   0.0000
  11 N11          4.2330     2.8193     1.0000 N.2          1    LIG   0.0000
  12 N12          4.2368     4.0803     0.9982 N.2          1    LIG   0.0000
  13 N13          3.0059     4.5303     0.9989 N.pl3        1    LIG   0.0000
  14 C14          2.6169     5.9471     1.0001 C.3          1    LIG   0.0000
  15 N15          2.1819     3.5124     0.9977 N.2          1    LIG   0.0000
  16 C16          0.1192    -0.8467    -0.2053 C.ar         1    LIG   0.0000
  17 C17          0.4551    -0.1423    -1.5101 C.3          1    LIG   0.0000
  18 H           -1.2408    -3.6983    -1.2930 H            1    LIG   0.0000
  19 H           -1.4582    -2.2554    -2.0262 H            1    LIG   0.0000
  20 H            0.0159    -2.9580    -2.0274 H            1    LIG   0.0000
  21 H           -1.2088    -3.6344     1.0057 H            1    LIG   0.0000
  22 H           -0.6929    -2.5514     3.0756 H            1    LIG   0.0000
  23 H            0.1661    -0.7463     4.2822 H            1    LIG   0.0000
  24 H            1.4309     0.0065     3.5749 H            1    LIG   0.0000
  25 H           -0.0425     0.7106     3.5747 H            1    LIG   0.0000
  26 H            2.7533     0.5286     0.1835 H            1    LIG   0.0000
  27 H            2.7533     0.5286     1.8165 H            1    LIG   0.0000
  28 H            1.6195     6.0189     1.0004 H            1    LIG   0.0000
  29 H            2.9835     6.3927     1.8168 H            1    LIG   0.0000
  30 H            2.9830     6.3939     0.1838 H            1    LIG   0.0000
  31 H            0.1804    -0.7182    -2.2801 H            1    LIG   0.0000
  32 H           -0.0341     0.7288    -1.5542 H            1    LIG   0.0000
  33 H            1.4399     0.0258    -1.5542 H            1    LIG   0.0000
@<TRIPOS>BOND
   1        1        2 1
   2        2        3 ar
   3        3        4 ar
   4        4        5 ar
   5        5        6 1
   6        5        7 ar
   7        7        8 1
   8        8        9 1
   9        9       10 1
  10       10       11 1
  11       11       12 2
  12       12       13 1
  13       13       14 1
  14       13       15 1
  15       15       10 2
  16        7       16 ar
  17       16        2 ar
  18       16       17 1
  19        1       18 1
  20        1       19 1
  21        1       20 1
  22        3       21 1
  23        4       22 1
  24        6       23 1
  25        6       24 1
  26        6       25 1
  27        9       26 1
  28        9       27 1
  29       14       28 1
  30       14       29 1
  31       14       30 1
  32       17       31 1
  33       17       32 1
  34       17       33 1

@<TRIPOS>MOLECULE

  33   34
SMALL
USER_CHARGES
@<TRIPOS>ATOM
   1 C1          -0.8192    -2.8148     3.4973 C.3          1    LIG   0.0000
   2 C2          -0.4803    -2.1025     2.1978 C.ar         1    LIG   0.0000
   3 C3          -0.7805    -2.7308     0.9948 C.ar         1    LIG   0.0000
   4 C4          -0.4797    -2.1011    -0.2086 C.ar         1    LIG   0.0000
   5 C5           0.1198    -0.8469    -0.2057 C.ar         1    LIG   0.0000
   6 C6           0.4468    -0.1604    -1.5220 C.3          1    LIG   0.0000
   7 C7           0.4186    -0.2189     1.0000 C.ar         1    LIG   0.0000
   8 O8           1.0000     1.0000     1.0000 O.3          1    LIG   0.0000
   9 C9           2.4200     1.0000     1.0000 C.3          1    LIG   0.0000
  10 C10          2.9268     2.4335     1.0000 C.2          1    LIG   0.0000
  11 N11          4.2330     2.8193     1.0000 N.2          1    LIG   0.0000
  12 N12          4.2368     4.0803     0.9982 N.2          1    LIG   0.0000
  13 N13          3.0059     4.5303     0.9989 N.pl3        1    LIG   0.0000
  14 C14          2.6169     5.9471     1.0001 C.3          1    LIG   0.0000
  15 N15          2.1819     3.5124     0.9977 N.2          1    LIG   0.0000
  16 C16          0.1192    -0.8467     2.2053 C.ar         1    LIG   0.0000
  17 C17          0.4552    -0.1424     3.5101 C.3          1    LIG   0.0000
  18 H           -1.2411    -3.6981     3.2930 H            1    LIG   0.0000
  19 H            0.0171    -2.9591     4.0262 H            1    LIG   0.0000
  20 H           -1.4566    -2.2556     4.0274 H            1    LIG   0.0000
  21 H           -1.2116    -3.6331     0.9943 H            1    LIG   0.0000
  22 H           -0.6946    -2.5506    -1.0756 H            1    LIG   0.0000
  23 H            0.1677    -0.7471    -2.2822 H            1    LIG   0.0000
  24 H           -0.0433     0.7096    -1.5749 H            1    LIG   0.0000
  25 H            1.4312     0.0077    -1.5747 H            1    LIG   0.0000
  26 H            2.7533     0.5286     0.1835 H            1    LIG   0.0000
  27 H            2.7533     0.5286     1.8165 H            1    LIG   0.0000
  28 H            1.6195     6.0189     1.0004 H            1    LIG   0.0000
  29 H            2.9835     6.3927     1.8168 H            1    LIG   0.0000
  30 H            2.9830     6.3939     0.1838 H            1    LIG   0.0000
  31 H            0.1805    -0.7182     4.2801 H            1    LIG   0.0000
  32 H            1.4400     0.0257     3.5542 H            1    LIG   0.0000
  33 H           -0.0339     0.7288     3.5542 H            1    LIG   0.0000
@<TRIPOS>BOND
   1        1        2 1
   2        2        3 ar
   3        3        4 ar
   4        4        5 ar
   5        5        6 1
   6        5        7 ar
   7        7        8 1
   8        8        9 1
   9        9       10 1
  10       10       11 1
  11       11       12 2
  12       12       13 1
  13       13       14 1
  14       13       15 1
  15       15       10 2
  16        7       16 ar
  17       16        2 ar
  18       16       17 1
  19        1       18 1
  20        1       19 1
  21        1       20 1
  22        3       21 1
  23        4       22 1
  24        6       23 1
  25        6       24 1
  26        6       25 1
  27        9       26 1
  28        9       27 1
  29       14       28 1
  30       14       29 1
  31       14       30 1
  32       17       31 1
  33       17       32 1
  34       17       33 1

@<TRIPOS>MOLECULE

  33   34
SMALL
USER_CHARGES
@<TRIPOS>ATOM
   1 C1          -0.8198    -2.8145    -1.4973 C.3          1    LIG   0.0000
   2 C2          -0.4795    -2.1029    -0.1978 C.ar         1    LIG   0.0000
   3 C3          -0.7789    -2.7316     1.0052 C.ar         1    LIG   0.0000
   4 C4          -0.4788    -2.1015     2.2086 C.ar         1    LIG   0.0000
   5 C5           0.1186    -0.8463     2.2057 C.ar         1    LIG   0.0000
   6 C6           0.4463    -0.1602     3.5220 C.3          1    LIG   0.0000
   7 C7           0.4186    -0.2189     1.0000 C.ar         1    LIG   0.0000
   8 O8           1.0000     1.0000     1.0000 O.3          1    LIG   0.0000
   9 C9           2.4200     1.0000     1.0000 C.3          1    LIG   0.0000
  10 C10          2.9268     2.4335     1.0000 C.2          1    LIG   0.0000
  11 N11          3.1932     3.1869     2.1029 N.2          1    LIG   0.0000
  12 N12          3.5916     4.3085     1.6861 N.2          1    LIG   0.0000
  13 N13          3.5956     4.3218     0.3756 N.pl3        1    LIG   0.0000
  14 C14          3.9965     5.4593    -0.4634 C.3          1    LIG   0.0000
  15 N15          3.1853     3.1577    -0.0619 N.2          1    LIG   0.0000
  16 C16          0.1192    -0.8467    -0.2053 C.ar         1    LIG   0.0000
  17 C17          0.4551    -0.1423    -1.5101 C.3          1    LIG   0.0000
  18 H           -1.2408    -3.6983    -1.2930 H            1    LIG   0.0000
  19 H           -1.4582    -2.2554    -2.0262 H            1    LIG   0.0000
  20 H            0.0159    -2.9580    -2.0274 H            1    LIG   0.0000
  21 H           -1.2088    -3.6344     1.0057 H            1    LIG   0.0000
  22 H           -0.6929    -2.5514     3.0756 H            1    LIG   0.0000
  23 H            0.1661    -0.7463     4.2822 H            1    LIG   0.0000
  24 H            1.4309     0.0065     3.5749 H            1    LIG   0.0000
  25 H           -0.0425     0.7106     3.5747 H            1    LIG   0.0000
  26 H            2.7533     0.5286     0.1835 H            1    LIG   0.0000
  27 H            2.7533     0.5286     1.8165 H            1    LIG   0.0000
  28 H            3.9079     5.2098    -1.4277 H            1    LIG   0.0000
  29 H            3.4073     6.2429    -0.2663 H            1    LIG   0.0000
  30 H            4.9472     5.6995    -0.2672 H            1    LIG   0.0000
  31 H            0.1804    -0.7182    -2.2801 H            1    LIG   0.0000
  32 H           -0.0341     0.7288    -1.5542 H            1    LIG   0.0000
  33 H            1.4399     0.0258    -1.5542 H            1    LIG   0.0000
@<TRIPOS>BOND
   1        1        2 1
   2        2        3 ar
   3        3        4 ar
   4        4        5 ar
   5        5        6 1
   6        5        7 ar
   7        7        8 1
   8        8        9 1
   9        9       10 1
  10       10       11 1
  11       11       12 2
  12       12       13 1
  13       13       14 1
  14       13       15 1
  15       15       10 2
  16        7       16 ar
  17       16        2 ar
  18       16       17 1
  19        1       18 1
  20        1       19 1
  21        1       20 1
  22        3       21 1
  23        4       22 1
  24        6       23 1
  25        6       24 1
  26        6       25 1
  27        9       26 1
  28        9       27 1
  29       14       28 1
  30       14       29 1
  31       14       30 1
  32       17       31 1
  33       17       32 1
  34       17       33 1

@<TRIPOS>MOLECULE

  33   34
SMALL
USER_CHARGES
@<TRIPOS>ATOM
   1 C1          -0.8192    -2.8148     3.4973 C.3          1    LIG   0.0000
   2 C2          -0.4803    -2.1025     2.1978 C.ar         1    LIG   0.0000
   3 C3          -0.7805    -2.7308     0.9948 C.ar         1    LIG   0.0000
   4 C4          -0.4797    -2.1011    -0.2086 C.ar         1    LIG   0.0000
   5 C5           0.1198    -0.8469    -0.2057 C.ar         1    LIG   0.0000
   6 C6           0.4468    -0.1604    -1.5220 C.3          1    LIG   0.0000
   7 C7           0.4186    -0.2189     1.0000 C.ar         1    LIG   0.0000
   8 O8           1.0000     1.0000     1.0000 O.3          1    LIG   0.0000
   9 C9           2.4200     1.0000     1.0000 C.3          1    LIG   0.0000
  10 C10          2.9268     2.4335     1.0000 C.2          1    LIG   0.0000
  11 N11          3.1932     3.1869     2.1029 N.2          1    LIG   0.0000
  12 N12          3.5916     4.3085     1.6861 N.2          1    LIG   0.0000
  13 N13          3.5956     4.3218     0.3756 N.pl3        1    LIG   0.0000
  14 C14          3.9965     5.4593    -0.4634 C.3          1    LIG   0.0000
  15 N15          3.1853     3.1577    -0.0619 N.2          1    LIG   0.0000
  16 C16          0.1192    -0.8467     2.2053 C.ar         1    LIG   0.0000
  17 C17          0.4552    -0.1424     3.5101 C.3          1    LIG   0.0000
  18 H           -1.2411    -3.6981     3.2930 H            1    LIG   0.0000
  19 H            0.0171    -2.9591     4.0262 H            1    LIG   0.0000
  20 H           -1.4566    -2.2556     4.0274 H            1    LIG   0.0000
  21 H           -1.2116    -3.6331     0.9943 H            1    LIG   0.0000
  22 H           -0.6946    -2.5506    -1.0756 H            1    LIG   0.0000
  23 H            0.1677    -0.7471    -2.2822 H            1    LIG   0.0000
  24 H           -0.0433     0.7096    -1.5749 H            1    LIG   0.0000
  25 H            1.4312     0.0077    -1.5747 H            1    LIG   0.0000
  26 H            2.7533     0.5286     0.1835 H            1    LIG   0.0000
  27 H            2.7533     0.5286     1.8165 H            1    LIG   0.0000
  28 H            3.9079     5.2098    -1.4277 H            1    LIG   0.0000
  29 H            3.4073     6.2429    -0.2663 H            1    LIG   0.0000
  30 H            4.9472     5.6995    -0.2672 H            1    LIG   0.0000
  31 H            0.1805    -0.7182     4.2801 H            1    LIG   0.0000
  32 H            1.4400     0.0257     3.5542 H            1    LIG   0.0000
  33 H           -0.0339     0.7288     3.5542 H            1    LIG   0.0000
@<TRIPOS>BOND
   1        1        2 1
   2        2        3 ar
   3        3        4 ar
   4        4        5 ar
   5        5        6 1
   6        5        7 ar
   7        7        8 1
   8        8        9 1
   9        9       10 1
  10       10       11 1
  11       11       12 2
  12       12       13 1
  13       13       14 1
  14       13       15 1
  15       15       10 2
  16        7       16 ar
  17       16        2 ar
  18       16       17 1
  19        1       18 1
  20        1       19 1
  21        1       20 1
  22        3       21 1
  23        4       22 1
  24        6       23 1
  25        6       24 1
  26        6       25 1
  27        9       26 1
  28        9       27 1
  29       14       28 1
  30       14       29 1
  31       14       30 1
  32       17       31 1
  33       17       32 1
  34       17       33 1

@<TRIPOS>MOLECULE

  33   34
SMALL
USER_CHARGES
@<TRIPOS>ATOM
   1 C1          -0.8192    -2.8148     3.4973 C.3          1    LIG   0.0000
   2 C2          -0.4803    -2.1025     2.1978 C.ar         1    LIG   0.0000
   3 C3          -0.7805    -2.7308     0.9948 C.ar         1    LIG   0.0000
   4 C4          -0.4797    -2.1011    -0.2086 C.ar         1    LIG   0.0000
   5 C5           0.1198    -0.8469    -0.2057 C.ar         1    LIG   0.0000
   6 C6           0.4468    -0.1604    -1.5220 C.3          1    LIG   0.0000
   7 C7           0.4186    -0.2189     1.0000 C.ar         1    LIG   0.0000
   8 O8           1.0000     1.0000     1.0000 O.3          1    LIG   0.0000
   9 C9           2.4200     1.0000     1.0000 C.3          1    LIG   0.0000
  10 C10          2.9268     0.5097     2.3471 C.2          1    LIG   0.0000
  11 N11          3.1932     1.2884     3.4323 N.2          1    LIG   0.0000
  12 N12          3.5883     0.5128     4.3447 N.2          1    LIG   0.0000
  13 N13          3.5936    -0.7231     3.9086 N.pl3        1    LIG   0.0000
  14 C14          3.9967    -1.9003     4.6898 C.3          1    LIG   0.0000
  15 N15          3.1810    -0.7363     2.6658 N.2          1    LIG   0.0000
  16 C16          0.1192    -0.8467     2.2053 C.ar         1    LIG   0.0000
  17 C17          0.4552    -0.1424     3.5101 C.3          1    LIG   0.0000
  18 H           -1.2411    -3.6981     3.2930 H            1    LIG   0.0000
  19 H            0.0171    -2.9591     4.0262 H            1    LIG   0.0000
  20 H           -1.4566    -2.2556     4.0274 H            1    LIG   0.0000
  21 H           -1.2116    -3.6331     0.9943 H            1    LIG   0.0000
  22 H           -0.6946    -2.5506    -1.0756 H            1    LIG   0.0000
  23 H            0.1677    -0.7471    -2.2822 H            1    LIG   0.0000
  24 H           -0.0433     0.7096    -1.5749 H            1    LIG   0.0000
  25 H            1.4312     0.0077    -1.5747 H            1    LIG   0.0000
  26 H            2.7533     1.9285     0.8363 H            1    LIG   0.0000
  27 H            2.7533     0.3940     0.2778 H            1    LIG   0.0000
  28 H            3.9088    -2.7210     4.1254 H            1    LIG   0.0000
  29 H            4.9475    -1.7969     4.9819 H            1    LIG   0.0000
  30 H            3.4082    -1.9842     5.4940 H            1    LIG   0.0000
  31 H            0.1805    -0.7182     4.2801 H            1    LIG   0.0000
  32 H            1.4400     0.0257     3.5542 H            1    LIG   0.0000
  33 H           -0.0339     0.7288     3.5542 H            1    LIG   0.0000
@<TRIPOS>BOND
   1        1        2 1
   2        2        3 ar
   3        3        4 ar
   4        4        5 ar
   5        5        6 1
   6        5        7 ar
   7        7        8 1
   8        8        9 1
   9        9       10 1
  10       10       11 1
  11       11       12 2
  12       12       13 1
  13       13       14 1
  14       13       15 1
  15       15       10 2
  16        7       16 ar
  17       16        2 ar
  18       16       17 1
  19        1       18 1
  20        1       19 1
  21        1       20 1
  22        3       21 1
  23        4       22 1
  24        6       23 1
  25        6       24 1
  26        6       25 1
  27        9       26 1
  28        9       27 1
  29       14       28 1
  30       14       29 1
  31       14       30 1
  32       17       31 1
  33       17       32 1
  34       17       33 1

@<TRIPOS>MOLECULE

  33   34
SMALL
USER_CHARGES
@<TRIPOS>ATOM
   1 C1          -0.8192    -2.8148     3.4973 C.3          1    LIG   0.0000
   2 C2          -0.4803    -2.1025     2.1978 C.ar         1    LIG   0.0000
   3 C3          -0.7805    -2.7308     0.9948 C.ar         1    LIG   0.0000
   4 C4          -0.4797    -2.1011    -0.2086 C.ar         1    LIG   0.0000
   5 C5           0.1198    -0.8469    -0.2057 C.ar         1    LIG   0.0000
   6 C6           0.4468    -0.1604    -1.5220 C.3          1    LIG   0.0000
   7 C7           0.4186    -0.2189     1.0000 C.ar         1    LIG   0.0000
   8 O8           1.0000     1.0000     1.0000 O.3          1    LIG   0.0000
   9 C9           2.4200     1.0000     1.0000 C.3          1    LIG   0.0000
  10 C10          2.9268     0.5097     2.3471 C.2          1    LIG   0.0000
  11 N11          3.1932    -0.7844     2.6778 N.2          1    LIG   0.0000
  12 N12          3.5916    -0.7763     3.8743 N.2          1    LIG   0.0000
  13 N13          3.5956     0.4506     4.3350 N.pl3        1    LIG   0.0000
  14 C14          3.9965     0.8499     5.6909 C.3          1    LIG   0.0000
  15 N15          3.1853     1.2599     3.3907 N.2          1    LIG   0.0000
  16 C16          0.1192    -0.8467     2.2053 C.ar         1    LIG   0.0000
  17 C17          0.4552    -0.1424     3.5101 C.3          1    LIG   0.0000
  18 H           -1.2411    -3.6981     3.2930 H            1    LIG   0.0000
  19 H            0.0171    -2.9591     4.0262 H            1    LIG   0.0000
  20 H           -1.4566    -2.2556     4.0274 H            1    LIG   0.0000
  21 H           -1.2116    -3.6331     0.9943 H            1    LIG   0.0000
  22 H           -0.6946    -2.5506    -1.0756 H            1    LIG   0.0000
  23 H            0.1677    -0.7471    -2.2822 H            1    LIG   0.0000
  24 H           -0.0433     0.7096    -1.5749 H            1    LIG   0.0000
  25 H            1.4312     0.0077    -1.5747 H            1    LIG   0.0000
  26 H            2.7533     1.9285     0.8363 H            1    LIG   0.0000
  27 H            2.7533     0.3940     0.2778 H            1    LIG   0.0000
  28 H            3.9079     1.8414     5.7863 H            1    LIG   0.0000
  29 H            3.4073     0.3968     6.3598 H            1    LIG   0.0000
  30 H            4.9472     0.5834     5.8494 H            1    LIG   0.0000
  31 H            0.1805    -0.7182     4.2801 H            1    LIG   0.0000
  32 H            1.4400     0.0257     3.5542 H            1    LIG   0.0000
  33 H           -0.0339     0.7288     3.5542 H            1    LIG   0.0000
@<TRIPOS>BOND
   1        1        2 1
   2        2        3 ar
   3        3        4 ar
   4        4        5 ar
   5        5        6 1
   6        5        7 ar
   7        7        8 1
   8        8        9 1
   9        9       10 1
  10       10       11 1
  11       11       12 2
  12       12       13 1
  13       13       14 1
  14       13       15 1
  15       15       10 2
  16        7       16 ar
  17       16        2 ar
  18       16       17 1
  19        1       18 1
  20        1       19 1
  21        1       20 1
  22        3       21 1
  23        4       22 1
  24        6       23 1
  25        6       24 1
  26        6       25 1
  27        9       26 1
  28        9       27 1
  29       14       28 1
  30       14       29 1
  31       14       30 1
  32       17       31 1
  33       17       32 1
  34       17       33 1

@<TRIPOS>MOLECULE

  33   34
SMALL
USER_CHARGES
@<TRIPOS>ATOM
   1 C1          -0.8192    -2.8148     3.4973 C.3          1    LIG   0.0000
   2 C2          -0.4803    -2.1025     2.1978 C.ar         1    LIG   0.0000
   3 C3          -0.7805    -2.7308     0.9948 C.ar         1    LIG   0.0000
   4 C4          -0.4797    -2.1011    -0.2086 C.ar         1    LIG   0.0000
   5 C5           0.1198    -0.8469    -0.2057 C.ar         1    LIG   0.0000
   6 C6           0.4468    -0.1604    -1.5220 C.3          1    LIG   0.0000
   7 C7           0.4186    -0.2189     1.0000 C.ar         1    LIG   0.0000
   8 O8           1.0000     1.0000     1.0000 O.3          1    LIG   0.0000
   9 C9           2.4200     1.0000     1.0000 C.3          1    LIG   0.0000
  10 C10          2.9268     1.0000    -0.4335 C.2          1    LIG   0.0000
  11 N11          3.1932    -0.1029    -1.1869 N.2          1    LIG   0.0000
  12 N12          3.5883     0.3139    -2.3096 N.2          1    LIG   0.0000
  13 N13          3.5936     1.6244    -2.3225 N.pl3        1    LIG   0.0000
  14 C14          3.9967     2.4634    -3.4593 C.3          1    LIG   0.0000
  15 N15          3.1810     2.0619    -1.1592 N.2          1    LIG   0.0000
  16 C16          0.1192    -0.8467     2.2053 C.ar         1    LIG   0.0000
  17 C17          0.4552    -0.1424     3.5101 C.3          1    LIG   0.0000
  18 H           -1.2411    -3.6981     3.2930 H            1    LIG   0.0000
  19 H            0.0171    -2.9591     4.0262 H            1    LIG   0.0000
  20 H           -1.4566    -2.2556     4.0274 H            1    LIG   0.0000
  21 H           -1.2116    -3.6331     0.9943 H            1    LIG   0.0000
  22 H           -0.6946    -2.5506    -1.0756 H            1    LIG   0.0000
  23 H            0.1677    -0.7471    -2.2822 H            1    LIG   0.0000
  24 H           -0.0433     0.7096    -1.5749 H            1    LIG   0.0000
  25 H            1.4312     0.0077    -1.5747 H            1    LIG   0.0000
  26 H            2.7533     0.1835     1.4714 H            1    LIG   0.0000
  27 H            2.7533     1.8165     1.4714 H            1    LIG   0.0000
  28 H            3.9088     3.4277    -3.2095 H            1    LIG   0.0000
  29 H            4.9475     2.2663    -3.6984 H            1    LIG   0.0000
  30 H            3.4082     2.2672    -4.2436 H            1    LIG   0.0000
  31 H            0.1805    -0.7182     4.2801 H            1    LIG   0.0000
  32 H            1.4400     0.0257     3.5542 H            1    LIG   0.0000
  33 H           -0.0339     0.7288     3.5542 H            1    LIG   0.0000
@<TRIPOS>BOND
   1        1        2 1
   2        2        3 ar
   3        3        4 ar
   4        4        5 ar
   5        5        6 1
   6        5        7 ar
   7        7        8 1
   8        8        9 1
   9        9       10 1
  10       10       11 1
  11       11       12 2
  12       12       13 1
  13       13       14 1
  14       13       15 1
  15       15       10 2
  16        7       16 ar
  17       16        2 ar
  18       16       17 1
  19        1       18 1
  20        1       19 1
  21        1       20 1
  22        3       21 1
  23        4       22 1
  24        6       23 1
  25        6       24 1
  26        6       25 1
  27        9       26 1
  28        9       27 1
  29       14       28 1
  30       14       29 1
  31       14       30 1
  32       17       31 1
  33       17       32 1
  34       17       33 1

@<TRIPOS>MOLECULE

  33   34
SMALL
USER_CHARGES
@<TRIPOS>ATOM
   1 C1          -0.8192    -2.8148     3.4973 C.3          1    LIG   0.0000
   2 C2          -0.4803    -2.1025     2.1978 C.ar         1    LIG   0.0000
   3 C3          -0.7805    -2.7308     0.9948 C.ar         1    LIG   0.0000
   4 C4          -0.4797    -2.1011    -0.2086 C.ar         1    LIG   0.0000
   5 C5           0.1198    -0.8469    -0.2057 C.ar         1    LIG   0.0000
   6 C6           0.4468    -0.1604    -1.5220 C.3          1    LIG   0.0000
   7 C7           0.4186    -0.2189     1.0000 C.ar         1    LIG   0.0000
   8 O8           1.0000     1.0000     1.0000 O.3          1    LIG   0.0000
   9 C9           2.4200     1.0000     1.0000 C.3          1    LIG   0.0000
  10 C10          2.9268     1.0000    -0.4335 C.2          1    LIG   0.0000
  11 N11          3.1932     2.1029    -1.1869 N.2          1    LIG   0.0000
  12 N12          3.5916     1.6861    -2.3085 N.2          1    LIG   0.0000
  13 N13          3.5956     0.3756    -2.3218 N.pl3        1    LIG   0.0000
  14 C14          3.9965    -0.4634    -3.4593 C.3          1    LIG   0.0000
  15 N15          3.1853    -0.0619    -1.1577 N.2          1    LIG   0.0000
  16 C16          0.1192    -0.8467     2.2053 C.ar         1    LIG   0.0000
  17 C17          0.4552    -0.1424     3.5101 C.3          1    LIG   0.0000
  18 H           -1.2411    -3.6981     3.2930 H            1    LIG   0.0000
  19 H            0.0171    -2.9591     4.0262 H            1    LIG   0.0000
  20 H           -1.4566    -2.2556     4.0274 H            1    LIG   0.0000
  21 H           -1.2116    -3.6331     0.9943 H            1    LIG   0.0000
  22 H           -0.6946    -2.5506    -1.0756 H            1    LIG   0.0000
  23 H            0.1677    -0.7471    -2.2822 H            1    LIG   0.0000
  24 H           -0.0433     0.7096    -1.5749 H            1    LIG   0.0000
  25 H            1.4312     0.0077    -1.5747 H            1    LIG   0.0000
  26 H            2.7533     0.1835     1.4714 H            1    LIG   0.0000
  27 H            2.7533     1.8165     1.4714 H            1    LIG   0.0000
  28 H            3.9079    -1.4277    -3.2098 H            1    LIG   0.0000
  29 H            3.4073    -0.2663    -4.2429 H            1    LIG   0.0000
  30 H            4.9472    -0.2672    -3.6995 H            1    LIG   0.0000
  31 H            0.1805    -0.7182     4.2801 H            1    LIG   0.0000
  32 H            1.4400     0.0257     3.5542 H            1    LIG   0.0000
  33 H           -0.0339     0.7288     3.5542 H            1    LIG   0.0000
@<TRIPOS>BOND
   1        1        2 1
   2        2        3 ar
   3        3        4 ar
   4        4        5 ar
   5        5        6 1
   6        5        7 ar
   7        7        8 1
   8        8        9 1
   9        9       10 1
  10       10       11 1
  11       11       12 2
  12       12       13 1
  13       13       14 1
  14       13       15 1
  15       15       10 2
  16        7       16 ar
  17       16        2 ar
  18       16       17 1
  19        1       18 1
  20        1       19 1
  21        1       20 1
  22        3       21 1
  23        4       22 1
  24        6       23 1
  25        6       24 1
  26        6       25 1
  27        9       26 1
  28        9       27 1
  29       14       28 1
  30       14       29 1
  31       14       30 1
  32       17       31 1
  33       17       32 1
  34       17       33 1

