@<TRIPOS>MOLECULE
*****
 33 34 0 0 0
SMALL
USER_CHARGES

@<TRIPOS>ATOM
      1 C1         -0.8192   -2.8148    3.4973 C.3     1  LIG1        0.0000
      2 C2         -0.4803   -2.1025    2.1978 C.ar    1  LIG1        0.0000
      3 C3         -0.7805   -2.7308    0.9948 C.ar    1  LIG1        0.0000
      4 C4         -0.4797   -2.1011   -0.2086 C.ar    1  LIG1        0.0000
      5 C5          0.1198   -0.8469   -0.2057 C.ar    1  LIG1        0.0000
      6 C6          0.4468   -0.1604   -1.5220 C.3     1  LIG1        0.0000
      7 C7          0.4186   -0.2189    1.0000 C.ar    1  LIG1        0.0000
      8 O8          1.0000    1.0000    1.0000 O.3     1  LIG1        0.0000
      9 C9          2.4200    1.0000    1.0000 C.3     1  LIG1        0.0000
     10 C10         2.9268    1.0000   -0.4335 C.2     1  LIG1        0.0000
     11 N11         3.1932   -0.1029   -1.1869 N.2     1  LIG1        0.0000
     12 N12         3.5883    0.3139   -2.3096 N.2     1  LIG1        0.0000
     13 N13         3.5936    1.6244   -2.3225 N.pl3   1  LIG1        0.0000
     14 C14         3.9967    2.4634   -3.4593 C.3     1  LIG1        0.0000
     15 N15         3.1810    2.0619   -1.1592 N.2     1  LIG1        0.0000
     16 C16         0.1192   -0.8467    2.2053 C.ar    1  LIG1        0.0000
     17 C17         0.4552   -0.1424    3.5101 C.3     1  LIG1        0.0000
     18 H          -1.2411   -3.6981    3.2930 H       1  LIG1        0.0000
     19 H           0.0171   -2.9591    4.0262 H       1  LIG1        0.0000
     20 H          -1.4566   -2.2556    4.0274 H       1  LIG1        0.0000
     21 H          -1.2116   -3.6331    0.9943 H       1  LIG1        0.0000
     22 H          -0.6946   -2.5506   -1.0756 H       1  LIG1        0.0000
     23 H           0.1677   -0.7471   -2.2822 H       1  LIG1        0.0000
     24 H          -0.0433    0.7096   -1.5749 H       1  LIG1        0.0000
     25 H           1.4312    0.0077   -1.5747 H       1  LIG1        0.0000
     26 H           2.7533    0.1835    1.4714 H       1  LIG1        0.0000
     27 H           2.7533    1.8165    1.4714 H       1  LIG1        0.0000
     28 H           3.9088    3.4277   -3.2095 H       1  LIG1        0.0000
     29 H           4.9475    2.2663   -3.6984 H       1  LIG1        0.0000
     30 H           3.4082    2.2672   -4.2436 H       1  LIG1        0.0000
     31 H           0.1805   -0.7182    4.2801 H       1  LIG1        0.0000
     32 H           1.4400    0.0257    3.5542 H       1  LIG1        0.0000
     33 H          -0.0339    0.7288    3.5542 H       1  LIG1        0.0000
@<TRIPOS>BOND
     1     1     2    1
     2     2     3   ar
     3     3     4   ar
     4     4     5   ar
     5     5     6    1
     6     5     7   ar
     7     7     8    1
     8     8     9    1
     9     9    10    1
    10    10    11    1
    11    11    12    2
    12    12    13    1
    13    13    14    1
    14    13    15    1
    15    15    10    2
    16     7    16   ar
    17    16     2   ar
    18    16    17    1
    19     1    18    1
    20     1    19    1
    21     1    20    1
    22     3    21    1
    23     4    22    1
    24     6    23    1
    25     6    24    1
    26     6    25    1
    27     9    26    1
    28     9    27    1
    29    14    28    1
    30    14    29    1
    31    14    30    1
    32    17    31    1
    33    17    32    1
    34    17    33    1
