@<TRIPOS>MOLECULE
*****
 33 34 0 0 0
SMALL
USER_CHARGES

@<TRIPOS>ATOM
      1 C1         -0.8198   -2.8145   -1.4973 C.3     1  LIG1        0.0000
      2 C2         -0.4795   -2.1029   -0.1978 C.ar    1  LIG1        0.0000
      3 C3         -0.7789   -2.7316    1.0052 C.ar    1  LIG1        0.0000
      4 C4         -0.4788   -2.1015    2.2086 C.ar    1  LIG1        0.0000
      5 C5          0.1186   -0.8463    2.2057 C.ar    1  LIG1        0.0000
      6 C6          0.4463   -0.1602    3.5220 C.3     1  LIG1        0.0000
      7 C7          0.4186   -0.2189    1.0000 C.ar    1  LIG1        0.0000
      8 O8          1.0000    1.0000    1.0000 O.3     1  LIG1        0.0000
      9 C9          2.4200    1.0000    1.0000 C.3     1  LIG1        0.0000
     10 C10         2.9268    2.4335    1.0000 C.2     1  LIG1        0.0000
     11 N11         4.2330    2.8193    1.0000 N.2     1  LIG1        0.0000
     12 N12         4.2368    4.0803    0.9982 N.2     1  LIG1        0.0000
     13 N13         3.0059    4.5303    0.9989 N.pl3   1  LIG1        0.0000
     14 C14         2.6169    5.9471    1.0001 C.3     1  LIG1        0.0000
     15 N15         2.1819    3.5124    0.9977 N.2     1  LIG1        0.0000
     16 C16         0.1192   -0.8467   -0.2053 C.ar    1  LIG1        0.0000
     17 C17         0.4551   -0.1423   -1.5101 C.3     1  LIG1        0.0000
     18 H          -1.2408   -3.6983   -1.2930 H       1  LIG1        0.0000
     19 H          -1.4582   -2.2554   -2.0262 H       1  LIG1        0.0000
     20 H           0.0159   -2.9580   -2.0274 H       1  LIG1        0.0000
     21 H          -1.2088   -3.6344    1.0057 H       1  LIG1        0.0000
     22 H          -0.6929   -2.5514    3.0756 H       1  LIG1        0.0000
     23 H           0.1661   -0.7463    4.2822 H       1  LIG1        0.0000
     24 H           1.4309    0.0065    3.5749 H       1  LIG1        0.0000
     25 H          -0.0425    0.7106    3.5747 H       1  LIG1        0.0000
     26 H           2.7533    0.5286    0.1835 H       1  LIG1        0.0000
     27 H           2.7533    0.5286    1.8165 H       1  LIG1        0.0000
     28 H           1.6195    6.0189    1.0004 H       1  LIG1        0.0000
     29 H           2.9835    6.3927    1.8168 H       1  LIG1        0.0000
     30 H           2.9830    6.3939    0.1838 H       1  LIG1        0.0000
     31 H           0.1804   -0.7182   -2.2801 H       1  LIG1        0.0000
     32 H          -0.0341    0.7288   -1.5542 H       1  LIG1        0.0000
     33 H           1.4399    0.0258   -1.5542 H       1  LIG1        0.0000
@<TRIPOS>BOND
     1     1     2    1
     2     2     3   ar
     3     3     4   ar
     4     4     5   ar
     5     5     6    1
     6     5     7   ar
     7     7     8    1
     8     8     9    1
     9     9    10    1
    10    10    11    1
    11    11    12    2
    12    12    13    1
    13    13    14    1
    14    13    15    1
    15    15    10    2
    16     7    16   ar
    17    16     2   ar
    18    16    17    1
    19     1    18    1
    20     1    19    1
    21     1    20    1
    22     3    21    1
    23     4    22    1
    24     6    23    1
    25     6    24    1
    26     6    25    1
    27     9    26    1
    28     9    27    1
    29    14    28    1
    30    14    29    1
    31    14    30    1
    32    17    31    1
    33    17    32    1
    34    17    33    1
