@<TRIPOS>MOLECULE
*****
 27 29 0 0 0
SMALL
USER_CHARGES

@<TRIPOS>ATOM
      1 O1         -2.0552    2.2926    1.3413 O.2     1  LIG1        0.0000
      2 S2         -1.2680    2.3890    0.0573 S.O2    1  LIG1        0.0000
      3 O3         -2.1276    2.2592   -1.1782 O.2     1  LIG1        0.0000
      4 C4         -0.3199    3.8449    0.0015 C.2     1  LIG1        0.0000
      5 C5          0.9553    3.5110   -0.0296 C.2     1  LIG1        0.0000
      6 C6          2.0036    4.5119   -0.0819 C.3     1  LIG1        0.0000
      7 C7          3.2058    4.2169   -0.7164 C.3     1  LIG1        0.0000
      8 C8          4.2059    5.1825   -0.7612 C.3     1  LIG1        0.0000
      9 C9          3.9983    6.4277   -0.1757 C.3     1  LIG1        0.0000
     10 C10         2.7928    6.7142    0.4565 C.3     1  LIG1        0.0000
     11 C11         1.7874    5.7537    0.5064 C.3     1  LIG1        0.0000
     12 C12         1.2193    2.0851   -0.0100 C.3     1  LIG1        0.0000
     13 C13         2.4227    1.3855   -0.0412 C.3     1  LIG1        0.0000
     14 C14         2.4564   -0.0058   -0.0333 C.3     1  LIG1        0.0000
     15 C15         1.2697   -0.7294    0.0044 C.3     1  LIG1        0.0000
     16 C16         0.0433   -0.0818    0.0351 C.3     1  LIG1        0.0000
     17 C17         0.0798    1.3051    0.0279 C.3     1  LIG1        0.0000
     18 H          -0.6805    4.7776   -0.0058 H       1  LIG1        0.0000
     19 H           3.3494    3.3205   -1.1357 H       1  LIG1        0.0000
     20 H           5.0744    4.9818   -1.2144 H       1  LIG1        0.0000
     21 H           4.7192    7.1199   -0.2096 H       1  LIG1        0.0000
     22 H           2.6487    7.6108    0.8753 H       1  LIG1        0.0000
     23 H           0.9191    5.9539    0.9602 H       1  LIG1        0.0000
     24 H           3.2829    1.8946   -0.0700 H       1  LIG1        0.0000
     25 H           3.3338   -0.4850   -0.0547 H       1  LIG1        0.0000
     26 H           1.3006   -1.7289    0.0095 H       1  LIG1        0.0000
     27 H          -0.8195   -0.5867    0.0610 H       1  LIG1        0.0000
@<TRIPOS>BOND
     1     1     2    2
     2     2     3    2
     3     2     4    1
     4     4     5    2
     5     5     6    1
     6     6     7   ar
     7     7     8   ar
     8     8     9   ar
     9     9    10   ar
    10    10    11   ar
    11    11     6   ar
    12     5    12    1
    13    12    13   ar
    14    13    14   ar
    15    14    15   ar
    16    15    16   ar
    17    16    17   ar
    18    17    12   ar
    19    17     2    1
    20     4    18    1
    21     7    19    1
    22     8    20    1
    23     9    21    1
    24    10    22    1
    25    11    23    1
    26    13    24    1
    27    14    25    1
    28    15    26    1
    29    16    27    1
