@<TRIPOS>MOLECULE

  48   53
SMALL
USER_CHARGES
@<TRIPOS>ATOM
   1 C1           1.8776     0.1224     0.1224 C.3          1    LIG   0.0000
   2 C2           1.0000     1.0000     1.0000 C.3          1    LIG   0.0000
   3 S3          -0.0450     2.0450    -0.0450 S.3          1    LIG   0.0000
   4 C4          -0.9576     0.8774    -0.9576 C.2          1    LIG   0.0000
   5 N5          -0.7030    -0.3956    -0.7030 N.2          1    LIG   0.0000
   6 C6          -1.3544    -1.4145    -1.3508 C.ar         1    LIG   0.0000
   7 C7          -1.0990    -2.7591    -1.0951 C.ar         1    LIG   0.0000
   8 C8          -1.7766    -3.7683    -1.7716 C.ar         1    LIG   0.0000
   9 C9          -2.7326    -3.4320    -2.7242 C.ar         1    LIG   0.0000
  10 C10         -2.9908    -2.0898    -2.9816 C.ar         1    LIG   0.0000
  11 C11         -2.3104    -1.0826    -2.3041 C.ar         1    LIG   0.0000
  12 C12         -2.5551     0.2953    -2.5459 C.2          1    LIG   0.0000
  13 N13         -3.4022     0.8559    -3.3818 N.2          1    LIG   0.0000
  14 C14         -3.2888     2.2117    -3.2658 C.ar         1    LIG   0.0000
  15 C15         -3.9844     3.2143    -3.9345 C.ar         1    LIG   0.0000
  16 C16         -3.7307     4.5547    -3.6653 C.ar         1    LIG   0.0000
  17 C17         -2.7691     4.8784    -2.7143 C.ar         1    LIG   0.0000
  18 C18         -2.0911     3.8537    -2.0616 C.ar         1    LIG   0.0000
  19 C19         -2.3309     2.5048    -2.3208 C.ar         1    LIG   0.0000
  20 N20         -1.8903     1.2779    -1.8872 N.pl3        1    LIG   0.0000
  21 C21          1.8786     1.8786     1.8786 C.2          1    LIG   0.0000
  22 N22          2.7596     2.7596     1.4634 N.2          1    LIG   0.0000
  23 N23          3.3069     3.3110     2.5229 N.2          1    LIG   0.0000
  24 N24          2.7937     2.7985     3.5608 N.2          1    LIG   0.0000
  25 N25          1.8970     1.8992     3.2354 N.pl3        1    LIG   0.0000
  26 C26          1.1253     1.1211     4.1071 C.ar         1    LIG   0.0000
  27 C27          1.7045     0.5976     5.2583 C.ar         1    LIG   0.0000
  28 C28          0.9307    -0.1748     6.1181 C.ar         1    LIG   0.0000
  29 C29         -0.4077    -0.4162     5.8231 C.ar         1    LIG   0.0000
  30 C30         -0.9788     0.1116     4.6697 C.ar         1    LIG   0.0000
  31 C31         -0.2116     0.8846     3.8040 C.ar         1    LIG   0.0000
  32 H            0.4226     0.4226     1.5774 H            1    LIG   0.0000
  33 H            2.4549    -0.4549     0.6998 H            1    LIG   0.0000
  34 H            1.3002    -0.4549    -0.4549 H            1    LIG   0.0000
  35 H            2.4549     0.6998    -0.4549 H            1    LIG   0.0000
  36 H           -0.4133    -3.0048    -0.4099 H            1    LIG   0.0000
  37 H           -1.5778    -4.7283    -1.5745 H            1    LIG   0.0000
  38 H           -3.2281    -4.1465    -3.2180 H            1    LIG   0.0000
  39 H           -3.6777    -1.8442    -3.6656 H            1    LIG   0.0000
  40 H           -4.6738     2.9683    -4.6158 H            1    LIG   0.0000
  41 H           -4.2312     5.2737    -4.1474 H            1    LIG   0.0000
  42 H           -2.5677     5.8347    -2.5024 H            1    LIG   0.0000
  43 H           -1.4026     4.0948    -1.3776 H            1    LIG   0.0000
  44 H            2.6667     0.7745     5.4655 H            1    LIG   0.0000
  45 H            1.3362    -0.5566     6.9486 H            1    LIG   0.0000
  46 H           -0.9615    -0.9719     6.4432 H            1    LIG   0.0000
  47 H           -1.9411    -0.0647     4.4627 H            1    LIG   0.0000
  48 H           -0.6167     1.2659     2.9730 H            1    LIG   0.0000
@<TRIPOS>BOND
   1        1        2 1
   2        2        3 1
   3        3        4 1
   4        4        5 2
   5        5        6 1
   6        6        7 ar
   7        7        8 ar
   8        8        9 ar
   9        9       10 ar
  10       10       11 ar
  11       11        6 ar
  12       11       12 1
  13       12       13 2
  14       13       14 1
  15       14       15 ar
  16       15       16 ar
  17       16       17 ar
  18       17       18 ar
  19       18       19 ar
  20       19       14 ar
  21       19       20 1
  22       20        4 1
  23       20       12 1
  24        2       21 1
  25       21       22 2
  26       22       23 1
  27       23       24 2
  28       24       25 1
  29       25       21 1
  30       25       26 1
  31       26       27 ar
  32       27       28 ar
  33       28       29 ar
  34       29       30 ar
  35       30       31 ar
  36       31       26 ar
  37        2       32 1
  38        1       33 1
  39        1       34 1
  40        1       35 1
  41        7       36 1
  42        8       37 1
  43        9       38 1
  44       10       39 1
  45       15       40 1
  46       16       41 1
  47       17       42 1
  48       18       43 1
  49       27       44 1
  50       28       45 1
  51       29       46 1
  52       30       47 1
  53       31       48 1

@<TRIPOS>MOLECULE

  48   53
SMALL
USER_CHARGES
@<TRIPOS>ATOM
   1 C1           1.8776     0.1224     0.1224 C.3          1    LIG   0.0000
   2 C2           1.0000     1.0000     1.0000 C.3          1    LIG   0.0000
   3 S3          -0.0450     2.0450    -0.0450 S.3          1    LIG   0.0000
   4 C4          -0.9576     0.8774    -0.9576 C.2          1    LIG   0.0000
   5 N5          -2.1037     0.4835    -0.4271 N.2          1    LIG   0.0000
   6 C6          -2.9190    -0.4302    -1.0456 C.ar         1    LIG   0.0000
   7 C7          -4.1282    -0.8554    -0.5016 C.ar         1    LIG   0.0000
   8 C8          -4.9308    -1.7854    -1.1543 C.ar         1    LIG   0.0000
   9 C9          -4.5218    -2.3037    -2.3785 C.ar         1    LIG   0.0000
  10 C10         -3.3150    -1.8805    -2.9252 C.ar         1    LIG   0.0000
  11 C11         -2.5137    -0.9510    -2.2691 C.ar         1    LIG   0.0000
  12 C12         -1.2780    -0.5005    -2.8049 C.2          1    LIG   0.0000
  13 N13         -0.6888    -0.8344    -3.9327 N.2          1    LIG   0.0000
  14 C14          0.4844    -0.1420    -4.0274 C.ar         1    LIG   0.0000
  15 C15          1.4363    -0.1567    -5.0423 C.ar         1    LIG   0.0000
  16 C16          2.5739     0.6387    -4.9596 C.ar         1    LIG   0.0000
  17 C17          2.7453     1.4517    -3.8445 C.ar         1    LIG   0.0000
  18 C18          1.7755     1.4453    -2.8469 C.ar         1    LIG   0.0000
  19 C19          0.6304     0.6525    -2.9122 C.ar         1    LIG   0.0000
  20 N20         -0.4951     0.4041    -2.1645 N.pl3        1    LIG   0.0000
  21 C21          1.8786     1.8786     1.8786 C.2          1    LIG   0.0000
  22 N22          2.7596     2.7596     1.4634 N.2          1    LIG   0.0000
  23 N23          3.3069     3.3110     2.5229 N.2          1    LIG   0.0000
  24 N24          2.7937     2.7985     3.5608 N.2          1    LIG   0.0000
  25 N25          1.8970     1.8992     3.2354 N.pl3        1    LIG   0.0000
  26 C26          1.1253     1.1211     4.1071 C.ar         1    LIG   0.0000
  27 C27          1.7045     0.5976     5.2583 C.ar         1    LIG   0.0000
  28 C28          0.9307    -0.1748     6.1181 C.ar         1    LIG   0.0000
  29 C29         -0.4077    -0.4162     5.8231 C.ar         1    LIG   0.0000
  30 C30         -0.9788     0.1116     4.6697 C.ar         1    LIG   0.0000
  31 C31         -0.2116     0.8846     3.8040 C.ar         1    LIG   0.0000
  32 H            0.4226     0.4226     1.5774 H            1    LIG   0.0000
  33 H            2.4549    -0.4549     0.6998 H            1    LIG   0.0000
  34 H            1.3002    -0.4549    -0.4549 H            1    LIG   0.0000
  35 H            2.4549     0.6998    -0.4549 H            1    LIG   0.0000
  36 H           -4.4262    -0.4840     0.3778 H            1    LIG   0.0000
  37 H           -5.7953    -2.0791    -0.7464 H            1    LIG   0.0000
  38 H           -5.0886    -2.9725    -2.8597 H            1    LIG   0.0000
  39 H           -3.0178    -2.2508    -3.8053 H            1    LIG   0.0000
  40 H            1.3009    -0.7453    -5.8392 H            1    LIG   0.0000
  41 H            3.2571     0.6263    -5.6897 H            1    LIG   0.0000
  42 H            3.5546     2.0331    -3.7608 H            1    LIG   0.0000
  43 H            1.9053     2.0343    -2.0493 H            1    LIG   0.0000
  44 H            2.6667     0.7745     5.4655 H            1    LIG   0.0000
  45 H            1.3362    -0.5566     6.9486 H            1    LIG   0.0000
  46 H           -0.9615    -0.9719     6.4432 H            1    LIG   0.0000
  47 H           -1.9411    -0.0647     4.4627 H            1    LIG   0.0000
  48 H           -0.6167     1.2659     2.9730 H            1    LIG   0.0000
@<TRIPOS>BOND
   1        1        2 1
   2        2        3 1
   3        3        4 1
   4        4        5 2
   5        5        6 1
   6        6        7 ar
   7        7        8 ar
   8        8        9 ar
   9        9       10 ar
  10       10       11 ar
  11       11        6 ar
  12       11       12 1
  13       12       13 2
  14       13       14 1
  15       14       15 ar
  16       15       16 ar
  17       16       17 ar
  18       17       18 ar
  19       18       19 ar
  20       19       14 ar
  21       19       20 1
  22       20        4 1
  23       20       12 1
  24        2       21 1
  25       21       22 2
  26       22       23 1
  27       23       24 2
  28       24       25 1
  29       25       21 1
  30       25       26 1
  31       26       27 ar
  32       27       28 ar
  33       28       29 ar
  34       29       30 ar
  35       30       31 ar
  36       31       26 ar
  37        2       32 1
  38        1       33 1
  39        1       34 1
  40        1       35 1
  41        7       36 1
  42        8       37 1
  43        9       38 1
  44       10       39 1
  45       15       40 1
  46       16       41 1
  47       17       42 1
  48       18       43 1
  49       27       44 1
  50       28       45 1
  51       29       46 1
  52       30       47 1
  53       31       48 1

@<TRIPOS>MOLECULE

  48   53
SMALL
USER_CHARGES
@<TRIPOS>ATOM
   1 C1           1.8776     0.1224     0.1224 C.3          1    LIG   0.0000
   2 C2           1.0000     1.0000     1.0000 C.3          1    LIG   0.0000
   3 S3          -0.0450     2.0450    -0.0450 S.3          1    LIG   0.0000
   4 C4          -0.9576     0.8774    -0.9576 C.2          1    LIG   0.0000
   5 N5          -0.4271     0.4835    -2.1037 N.2          1    LIG   0.0000
   6 C6          -1.0431    -0.4340    -2.9166 C.ar         1    LIG   0.0000
   7 C7          -0.4989    -0.8595    -4.1255 C.ar         1    LIG   0.0000
   8 C8          -1.1510    -1.7906    -4.9274 C.ar         1    LIG   0.0000
   9 C9          -2.3729    -2.3125    -4.5162 C.ar         1    LIG   0.0000
  10 C10         -2.9190    -1.8902    -3.3088 C.ar         1    LIG   0.0000
  11 C11         -2.2649    -0.9577    -2.5094 C.ar         1    LIG   0.0000
  12 C12         -2.7987    -0.5102    -1.2718 C.2          1    LIG   0.0000
  13 N13         -3.9190    -0.8558    -0.6751 N.2          1    LIG   0.0000
  14 C14         -4.0120    -0.1662     0.4998 C.ar         1    LIG   0.0000
  15 C15         -5.0088    -0.2090     1.4698 C.ar         1    LIG   0.0000
  16 C16         -4.9157     0.5702     2.6177 C.ar         1    LIG   0.0000
  17 C17         -3.8077     1.3942     2.7821 C.ar         1    LIG   0.0000
  18 C18         -2.8271     1.4144     1.7953 C.ar         1    LIG   0.0000
  19 C19         -2.9054     0.6419     0.6371 C.ar         1    LIG   0.0000
  20 N20         -2.1624     0.4009    -0.4930 N.pl3        1    LIG   0.0000
  21 C21          1.8786     1.8786     1.8786 C.2          1    LIG   0.0000
  22 N22          2.7596     2.7596     1.4634 N.2          1    LIG   0.0000
  23 N23          3.3069     3.3110     2.5229 N.2          1    LIG   0.0000
  24 N24          2.7937     2.7985     3.5608 N.2          1    LIG   0.0000
  25 N25          1.8970     1.8992     3.2354 N.pl3        1    LIG   0.0000
  26 C26          1.1253     1.1211     4.1071 C.ar         1    LIG   0.0000
  27 C27          1.7045     0.5976     5.2583 C.ar         1    LIG   0.0000
  28 C28          0.9307    -0.1748     6.1181 C.ar         1    LIG   0.0000
  29 C29         -0.4077    -0.4162     5.8231 C.ar         1    LIG   0.0000
  30 C30         -0.9788     0.1116     4.6697 C.ar         1    LIG   0.0000
  31 C31         -0.2116     0.8846     3.8040 C.ar         1    LIG   0.0000
  32 H            0.4226     0.4226     1.5774 H            1    LIG   0.0000
  33 H            2.4549    -0.4549     0.6998 H            1    LIG   0.0000
  34 H            1.3002    -0.4549    -0.4549 H            1    LIG   0.0000
  35 H            2.4549     0.6998    -0.4549 H            1    LIG   0.0000
  36 H            0.3800    -0.4876    -4.4239 H            1    LIG   0.0000
  37 H           -0.7442    -2.0826    -5.7931 H            1    LIG   0.0000
  38 H           -2.8529    -2.9831    -5.0818 H            1    LIG   0.0000
  39 H           -3.7972    -2.2634    -3.0098 H            1    LIG   0.0000
  40 H           -5.8003    -0.8062     1.3399 H            1    LIG   0.0000
  41 H           -5.6335     0.5384     3.3133 H            1    LIG   0.0000
  42 H           -3.7169     1.9645     3.5985 H            1    LIG   0.0000
  43 H           -2.0325     2.0081     1.9220 H            1    LIG   0.0000
  44 H            2.6667     0.7745     5.4655 H            1    LIG   0.0000
  45 H            1.3362    -0.5566     6.9486 H            1    LIG   0.0000
  46 H           -0.9615    -0.9719     6.4432 H            1    LIG   0.0000
  47 H           -1.9411    -0.0647     4.4627 H            1    LIG   0.0000
  48 H           -0.6167     1.2659     2.9730 H            1    LIG   0.0000
@<TRIPOS>BOND
   1        1        2 1
   2        2        3 1
   3        3        4 1
   4        4        5 2
   5        5        6 1
   6        6        7 ar
   7        7        8 ar
   8        8        9 ar
   9        9       10 ar
  10       10       11 ar
  11       11        6 ar
  12       11       12 1
  13       12       13 2
  14       13       14 1
  15       14       15 ar
  16       15       16 ar
  17       16       17 ar
  18       17       18 ar
  19       18       19 ar
  20       19       14 ar
  21       19       20 1
  22       20        4 1
  23       20       12 1
  24        2       21 1
  25       21       22 2
  26       22       23 1
  27       23       24 2
  28       24       25 1
  29       25       21 1
  30       25       26 1
  31       26       27 ar
  32       27       28 ar
  33       28       29 ar
  34       29       30 ar
  35       30       31 ar
  36       31       26 ar
  37        2       32 1
  38        1       33 1
  39        1       34 1
  40        1       35 1
  41        7       36 1
  42        8       37 1
  43        9       38 1
  44       10       39 1
  45       15       40 1
  46       16       41 1
  47       17       42 1
  48       18       43 1
  49       27       44 1
  50       28       45 1
  51       29       46 1
  52       30       47 1
  53       31       48 1

@<TRIPOS>MOLECULE

  48   53
SMALL
USER_CHARGES
@<TRIPOS>ATOM
   1 C1           1.8776     0.1224     0.1224 C.3          1    LIG   0.0000
   2 C2           1.0000     1.0000     1.0000 C.3          1    LIG   0.0000
   3 S3          -0.0450     2.0450    -0.0450 S.3          1    LIG   0.0000
   4 C4          -1.1556     2.7385     1.1015 C.2          1    LIG   0.0000
   5 N5          -0.7887     3.8820     1.6564 N.2          1    LIG   0.0000
   6 C6          -1.5737     4.5340     2.5733 C.ar         1    LIG   0.0000
   7 C7          -1.2031     5.7379     3.1666 C.ar         1    LIG   0.0000
   8 C8          -2.0223     6.3723     4.0949 C.ar         1    LIG   0.0000
   9 C9          -3.2403     5.7964     4.4401 C.ar         1    LIG   0.0000
  10 C10         -3.6141     4.5943     3.8487 C.ar         1    LIG   0.0000
  11 C11         -2.7918     3.9614     2.9214 C.ar         1    LIG   0.0000
  12 C12         -3.1491     2.7347     2.3014 C.2          1    LIG   0.0000
  13 N13         -4.2352     2.0089     2.4570 N.2          1    LIG   0.0000
  14 C14         -4.1395     0.9115     1.6501 C.ar         1    LIG   0.0000
  15 C15         -5.0452    -0.1289     1.4671 C.ar         1    LIG   0.0000
  16 C16         -4.7679    -1.1633     0.5801 C.ar         1    LIG   0.0000
  17 C17         -3.5686    -1.1412    -0.1235 C.ar         1    LIG   0.0000
  18 C18         -2.6839    -0.0870     0.0802 C.ar         1    LIG   0.0000
  19 C19         -2.9446     0.9569     0.9671 C.ar         1    LIG   0.0000
  20 N20         -2.3466     2.1160     1.3989 N.pl3        1    LIG   0.0000
  21 C21          1.8786     1.8786     1.8786 C.2          1    LIG   0.0000
  22 N22          2.7596     2.7596     1.4634 N.2          1    LIG   0.0000
  23 N23          3.3069     3.3110     2.5229 N.2          1    LIG   0.0000
  24 N24          2.7937     2.7985     3.5608 N.2          1    LIG   0.0000
  25 N25          1.8970     1.8992     3.2354 N.pl3        1    LIG   0.0000
  26 C26          1.1253     1.1211     4.1071 C.ar         1    LIG   0.0000
  27 C27          1.7045     0.5976     5.2583 C.ar         1    LIG   0.0000
  28 C28          0.9307    -0.1748     6.1181 C.ar         1    LIG   0.0000
  29 C29         -0.4077    -0.4162     5.8231 C.ar         1    LIG   0.0000
  30 C30         -0.9788     0.1116     4.6697 C.ar         1    LIG   0.0000
  31 C31         -0.2116     0.8846     3.8040 C.ar         1    LIG   0.0000
  32 H            0.4226     0.4226     1.5774 H            1    LIG   0.0000
  33 H            2.4549    -0.4549     0.6998 H            1    LIG   0.0000
  34 H            1.3002    -0.4549    -0.4549 H            1    LIG   0.0000
  35 H            2.4549     0.6998    -0.4549 H            1    LIG   0.0000
  36 H           -0.3287     6.1557     2.9200 H            1    LIG   0.0000
  37 H           -1.7375     7.2359     4.5109 H            1    LIG   0.0000
  38 H           -3.8400     6.2412     5.1053 H            1    LIG   0.0000
  39 H           -4.4892     4.1774     4.0943 H            1    LIG   0.0000
  40 H           -5.9044    -0.1327     1.9787 H            1    LIG   0.0000
  41 H           -5.4198    -1.9104     0.4505 H            1    LIG   0.0000
  42 H           -3.3452    -1.8731    -0.7672 H            1    LIG   0.0000
  43 H           -1.8246    -0.0774    -0.4311 H            1    LIG   0.0000
  44 H            2.6667     0.7745     5.4655 H            1    LIG   0.0000
  45 H            1.3362    -0.5566     6.9486 H            1    LIG   0.0000
  46 H           -0.9615    -0.9719     6.4432 H            1    LIG   0.0000
  47 H           -1.9411    -0.0647     4.4627 H            1    LIG   0.0000
  48 H           -0.6167     1.2659     2.9730 H            1    LIG   0.0000
@<TRIPOS>BOND
   1        1        2 1
   2        2        3 1
   3        3        4 1
   4        4        5 2
   5        5        6 1
   6        6        7 ar
   7        7        8 ar
   8        8        9 ar
   9        9       10 ar
  10       10       11 ar
  11       11        6 ar
  12       11       12 1
  13       12       13 2
  14       13       14 1
  15       14       15 ar
  16       15       16 ar
  17       16       17 ar
  18       17       18 ar
  19       18       19 ar
  20       19       14 ar
  21       19       20 1
  22       20        4 1
  23       20       12 1
  24        2       21 1
  25       21       22 2
  26       22       23 1
  27       23       24 2
  28       24       25 1
  29       25       21 1
  30       25       26 1
  31       26       27 ar
  32       27       28 ar
  33       28       29 ar
  34       29       30 ar
  35       30       31 ar
  36       31       26 ar
  37        2       32 1
  38        1       33 1
  39        1       34 1
  40        1       35 1
  41        7       36 1
  42        8       37 1
  43        9       38 1
  44       10       39 1
  45       15       40 1
  46       16       41 1
  47       17       42 1
  48       18       43 1
  49       27       44 1
  50       28       45 1
  51       29       46 1
  52       30       47 1
  53       31       48 1

@<TRIPOS>MOLECULE

  48   53
SMALL
USER_CHARGES
@<TRIPOS>ATOM
   1 C1           1.8776     0.1224     0.1224 C.3          1    LIG   0.0000
   2 C2           1.0000     1.0000     1.0000 C.3          1    LIG   0.0000
   3 S3          -0.0450     2.0450    -0.0450 S.3          1    LIG   0.0000
   4 C4          -1.1556     2.7385     1.1015 C.2          1    LIG   0.0000
   5 N5          -2.2718     2.0628     1.3202 N.2          1    LIG   0.0000
   6 C6          -3.2286     2.4986     2.2015 C.ar         1    LIG   0.0000
   7 C7          -4.4085     1.8000     2.4435 C.ar         1    LIG   0.0000
   8 C8          -5.3596     2.2710     3.3428 C.ar         1    LIG   0.0000
   9 C9          -5.1309     3.4648     4.0190 C.ar         1    LIG   0.0000
  10 C10         -3.9530     4.1647     3.7802 C.ar         1    LIG   0.0000
  11 C11         -3.0041     3.6915     2.8790 C.ar         1    LIG   0.0000
  12 C12         -1.7926     4.3849     2.6172 C.2          1    LIG   0.0000
  13 N13         -1.3528     5.5143     3.1288 N.2          1    LIG   0.0000
  14 C14         -0.1340     5.7908     2.5788 C.ar         1    LIG   0.0000
  15 C15          0.7171     6.8653     2.8182 C.ar         1    LIG   0.0000
  16 C16          1.9374     6.9645     2.1590 C.ar         1    LIG   0.0000
  17 C17          2.2952     5.9702     1.2551 C.ar         1    LIG   0.0000
  18 C18          1.4236     4.9077     1.0379 C.ar         1    LIG   0.0000
  19 C19          0.1954     4.7936     1.6880 C.ar         1    LIG   0.0000
  20 N20         -0.8680     3.9251     1.7368 N.pl3        1    LIG   0.0000
  21 C21          1.8786     1.8786     1.8786 C.2          1    LIG   0.0000
  22 N22          2.7596     2.7596     1.4634 N.2          1    LIG   0.0000
  23 N23          3.3069     3.3110     2.5229 N.2          1    LIG   0.0000
  24 N24          2.7937     2.7985     3.5608 N.2          1    LIG   0.0000
  25 N25          1.8970     1.8992     3.2354 N.pl3        1    LIG   0.0000
  26 C26          1.1253     1.1211     4.1071 C.ar         1    LIG   0.0000
  27 C27          1.7045     0.5976     5.2583 C.ar         1    LIG   0.0000
  28 C28          0.9307    -0.1748     6.1181 C.ar         1    LIG   0.0000
  29 C29         -0.4077    -0.4162     5.8231 C.ar         1    LIG   0.0000
  30 C30         -0.9788     0.1116     4.6697 C.ar         1    LIG   0.0000
  31 C31         -0.2116     0.8846     3.8040 C.ar         1    LIG   0.0000
  32 H            0.4226     0.4226     1.5774 H            1    LIG   0.0000
  33 H            2.4549    -0.4549     0.6998 H            1    LIG   0.0000
  34 H            1.3002    -0.4549    -0.4549 H            1    LIG   0.0000
  35 H            2.4549     0.6998    -0.4549 H            1    LIG   0.0000
  36 H           -4.5759     0.9407     1.9603 H            1    LIG   0.0000
  37 H           -6.2014     1.7552     3.5019 H            1    LIG   0.0000
  38 H           -5.8052     3.8155     4.6689 H            1    LIG   0.0000
  39 H           -3.7850     5.0232     4.2647 H            1    LIG   0.0000
  40 H            0.4483     7.5735     3.4710 H            1    LIG   0.0000
  41 H            2.5473     7.7379     2.3320 H            1    LIG   0.0000
  42 H            3.1672     6.0181     0.7680 H            1    LIG   0.0000
  43 H            1.6893     4.1957     0.3879 H            1    LIG   0.0000
  44 H            2.6667     0.7745     5.4655 H            1    LIG   0.0000
  45 H            1.3362    -0.5566     6.9486 H            1    LIG   0.0000
  46 H           -0.9615    -0.9719     6.4432 H            1    LIG   0.0000
  47 H           -1.9411    -0.0647     4.4627 H            1    LIG   0.0000
  48 H           -0.6167     1.2659     2.9730 H            1    LIG   0.0000
@<TRIPOS>BOND
   1        1        2 1
   2        2        3 1
   3        3        4 1
   4        4        5 2
   5        5        6 1
   6        6        7 ar
   7        7        8 ar
   8        8        9 ar
   9        9       10 ar
  10       10       11 ar
  11       11        6 ar
  12       11       12 1
  13       12       13 2
  14       13       14 1
  15       14       15 ar
  16       15       16 ar
  17       16       17 ar
  18       17       18 ar
  19       18       19 ar
  20       19       14 ar
  21       19       20 1
  22       20        4 1
  23       20       12 1
  24        2       21 1
  25       21       22 2
  26       22       23 1
  27       23       24 2
  28       24       25 1
  29       25       21 1
  30       25       26 1
  31       26       27 ar
  32       27       28 ar
  33       28       29 ar
  34       29       30 ar
  35       30       31 ar
  36       31       26 ar
  37        2       32 1
  38        1       33 1
  39        1       34 1
  40        1       35 1
  41        7       36 1
  42        8       37 1
  43        9       38 1
  44       10       39 1
  45       15       40 1
  46       16       41 1
  47       17       42 1
  48       18       43 1
  49       27       44 1
  50       28       45 1
  51       29       46 1
  52       30       47 1
  53       31       48 1

@<TRIPOS>MOLECULE

  48   53
SMALL
USER_CHARGES
@<TRIPOS>ATOM
   1 C1           1.8776     0.1224     0.1224 C.3          1    LIG   0.0000
   2 C2           1.0000     1.0000     1.0000 C.3          1    LIG   0.0000
   3 S3          -0.0450     2.0450    -0.0450 S.3          1    LIG   0.0000
   4 C4           1.1015     2.7385    -1.1556 C.2          1    LIG   0.0000
   5 N5           1.3202     2.0628    -2.2718 N.2          1    LIG   0.0000
   6 C6           2.1977     2.5011    -3.2309 C.ar         1    LIG   0.0000
   7 C7           2.4395     1.8028    -4.4110 C.ar         1    LIG   0.0000
   8 C8           3.3377     2.2746    -5.3627 C.ar         1    LIG   0.0000
   9 C9           4.0103     3.4707    -5.1362 C.ar         1    LIG   0.0000
  10 C10          3.7706     4.1713    -3.9589 C.ar         1    LIG   0.0000
  11 C11          2.8724     3.6960    -3.0081 C.ar         1    LIG   0.0000
  12 C12          2.6076     4.3915    -1.7985 C.2          1    LIG   0.0000
  13 N13          3.1075     5.5288    -1.3658 N.2          1    LIG   0.0000
  14 C14          2.5547     5.8072    -0.1486 C.ar         1    LIG   0.0000
  15 C15          2.7661     6.9008     0.6854 C.ar         1    LIG   0.0000
  16 C16          2.0907     7.0110     1.8959 C.ar         1    LIG   0.0000
  17 C17          1.1978     6.0091     2.2604 C.ar         1    LIG   0.0000
  18 C18          1.0071     4.9287     1.4049 C.ar         1    LIG   0.0000
  19 C19          1.6775     4.8008     0.1890 C.ar         1    LIG   0.0000
  20 N20          1.7336     3.9274    -0.8700 N.pl3        1    LIG   0.0000
  21 C21          1.8786     1.8786     1.8786 C.2          1    LIG   0.0000
  22 N22          2.7596     2.7596     1.4634 N.2          1    LIG   0.0000
  23 N23          3.3069     3.3110     2.5229 N.2          1    LIG   0.0000
  24 N24          2.7937     2.7985     3.5608 N.2          1    LIG   0.0000
  25 N25          1.8970     1.8992     3.2354 N.pl3        1    LIG   0.0000
  26 C26          1.1253     1.1211     4.1071 C.ar         1    LIG   0.0000
  27 C27          1.7045     0.5976     5.2583 C.ar         1    LIG   0.0000
  28 C28          0.9307    -0.1748     6.1181 C.ar         1    LIG   0.0000
  29 C29         -0.4077    -0.4162     5.8231 C.ar         1    LIG   0.0000
  30 C30         -0.9788     0.1116     4.6697 C.ar         1    LIG   0.0000
  31 C31         -0.2116     0.8846     3.8040 C.ar         1    LIG   0.0000
  32 H            0.4226     0.4226     1.5774 H            1    LIG   0.0000
  33 H            2.4549    -0.4549     0.6998 H            1    LIG   0.0000
  34 H            1.3002    -0.4549    -0.4549 H            1    LIG   0.0000
  35 H            2.4549     0.6998    -0.4549 H            1    LIG   0.0000
  36 H            1.9568     0.9431    -4.5780 H            1    LIG   0.0000
  37 H            3.4985     1.7576    -6.2035 H            1    LIG   0.0000
  38 H            4.6584     3.8226    -5.8116 H            1    LIG   0.0000
  39 H            4.2521     5.0318    -3.7927 H            1    LIG   0.0000
  40 H            3.4104     7.6148     0.4114 H            1    LIG   0.0000
  41 H            2.2444     7.7974     2.4941 H            1    LIG   0.0000
  42 H            0.6996     6.0645     3.1257 H            1    LIG   0.0000
  43 H            0.3618     4.2135     1.6734 H            1    LIG   0.0000
  44 H            2.6667     0.7745     5.4655 H            1    LIG   0.0000
  45 H            1.3362    -0.5566     6.9486 H            1    LIG   0.0000
  46 H           -0.9615    -0.9719     6.4432 H            1    LIG   0.0000
  47 H           -1.9411    -0.0647     4.4627 H            1    LIG   0.0000
  48 H           -0.6167     1.2659     2.9730 H            1    LIG   0.0000
@<TRIPOS>BOND
   1        1        2 1
   2        2        3 1
   3        3        4 1
   4        4        5 2
   5        5        6 1
   6        6        7 ar
   7        7        8 ar
   8        8        9 ar
   9        9       10 ar
  10       10       11 ar
  11       11        6 ar
  12       11       12 1
  13       12       13 2
  14       13       14 1
  15       14       15 ar
  16       15       16 ar
  17       16       17 ar
  18       17       18 ar
  19       18       19 ar
  20       19       14 ar
  21       19       20 1
  22       20        4 1
  23       20       12 1
  24        2       21 1
  25       21       22 2
  26       22       23 1
  27       23       24 2
  28       24       25 1
  29       25       21 1
  30       25       26 1
  31       26       27 ar
  32       27       28 ar
  33       28       29 ar
  34       29       30 ar
  35       30       31 ar
  36       31       26 ar
  37        2       32 1
  38        1       33 1
  39        1       34 1
  40        1       35 1
  41        7       36 1
  42        8       37 1
  43        9       38 1
  44       10       39 1
  45       15       40 1
  46       16       41 1
  47       17       42 1
  48       18       43 1
  49       27       44 1
  50       28       45 1
  51       29       46 1
  52       30       47 1
  53       31       48 1

@<TRIPOS>MOLECULE

  48   53
SMALL
USER_CHARGES
@<TRIPOS>ATOM
   1 C1           1.8776     0.1224     0.1224 C.3          1    LIG   0.0000
   2 C2           1.0000     1.0000     1.0000 C.3          1    LIG   0.0000
   3 S3          -0.0450     2.0450    -0.0450 S.3          1    LIG   0.0000
   4 C4           1.1015     2.7385    -1.1556 C.2          1    LIG   0.0000
   5 N5           1.6564     3.8820    -0.7887 N.2          1    LIG   0.0000
   6 C6           2.5771     4.5314    -1.5714 C.ar         1    LIG   0.0000
   7 C7           3.1707     5.7351    -1.2006 C.ar         1    LIG   0.0000
   8 C8           4.1001     6.3688    -2.0191 C.ar         1    LIG   0.0000
   9 C9           4.4488     5.7904    -3.2350 C.ar         1    LIG   0.0000
  10 C10          3.8584     4.5877    -3.6082 C.ar         1    LIG   0.0000
  11 C11          2.9280     3.9569    -2.7878 C.ar         1    LIG   0.0000
  12 C12          2.3111     2.7281    -3.1432 C.2          1    LIG   0.0000
  13 N13          2.4784     1.9944    -4.2222 N.2          1    LIG   0.0000
  14 C14          1.6741     0.8952    -4.1249 C.ar         1    LIG   0.0000
  15 C15          1.5191    -0.1643    -5.0136 C.ar         1    LIG   0.0000
  16 C16          0.6485    -1.2097    -4.7264 C.ar         1    LIG   0.0000
  17 C17         -0.0662    -1.1802    -3.5338 C.ar         1    LIG   0.0000
  18 C18          0.1110    -0.1079    -2.6652 C.ar         1    LIG   0.0000
  19 C19          0.9777     0.9497    -2.9382 C.ar         1    LIG   0.0000
  20 N20          1.4021     2.1138    -2.3446 N.pl3        1    LIG   0.0000
  21 C21          1.8786     1.8786     1.8786 C.2          1    LIG   0.0000
  22 N22          2.7596     2.7596     1.4634 N.2          1    LIG   0.0000
  23 N23          3.3069     3.3110     2.5229 N.2          1    LIG   0.0000
  24 N24          2.7937     2.7985     3.5608 N.2          1    LIG   0.0000
  25 N25          1.8970     1.8992     3.2354 N.pl3        1    LIG   0.0000
  26 C26          1.1253     1.1211     4.1071 C.ar         1    LIG   0.0000
  27 C27          1.7045     0.5976     5.2583 C.ar         1    LIG   0.0000
  28 C28          0.9307    -0.1748     6.1181 C.ar         1    LIG   0.0000
  29 C29         -0.4077    -0.4162     5.8231 C.ar         1    LIG   0.0000
  30 C30         -0.9788     0.1116     4.6697 C.ar         1    LIG   0.0000
  31 C31         -0.2116     0.8846     3.8040 C.ar         1    LIG   0.0000
  32 H            0.4226     0.4226     1.5774 H            1    LIG   0.0000
  33 H            2.4549    -0.4549     0.6998 H            1    LIG   0.0000
  34 H            1.3002    -0.4549    -0.4549 H            1    LIG   0.0000
  35 H            2.4549     0.6998    -0.4549 H            1    LIG   0.0000
  36 H            2.9235     6.1533    -0.3265 H            1    LIG   0.0000
  37 H            4.5143     7.2336    -1.7354 H            1    LIG   0.0000
  38 H            5.1159     6.2340    -3.8336 H            1    LIG   0.0000
  39 H            4.1068     4.1688    -4.4816 H            1    LIG   0.0000
  40 H            2.0393    -0.1740    -5.8676 H            1    LIG   0.0000
  41 H            0.5380    -1.9700    -5.3666 H            1    LIG   0.0000
  42 H           -0.6989    -1.9196    -3.3036 H            1    LIG   0.0000
  43 H           -0.4050    -0.0952    -1.8087 H            1    LIG   0.0000
  44 H            2.6667     0.7745     5.4655 H            1    LIG   0.0000
  45 H            1.3362    -0.5566     6.9486 H            1    LIG   0.0000
  46 H           -0.9615    -0.9719     6.4432 H            1    LIG   0.0000
  47 H           -1.9411    -0.0647     4.4627 H            1    LIG   0.0000
  48 H           -0.6167     1.2659     2.9730 H            1    LIG   0.0000
@<TRIPOS>BOND
   1        1        2 1
   2        2        3 1
   3        3        4 1
   4        4        5 2
   5        5        6 1
   6        6        7 ar
   7        7        8 ar
   8        8        9 ar
   9        9       10 ar
  10       10       11 ar
  11       11        6 ar
  12       11       12 1
  13       12       13 2
  14       13       14 1
  15       14       15 ar
  16       15       16 ar
  17       16       17 ar
  18       17       18 ar
  19       18       19 ar
  20       19       14 ar
  21       19       20 1
  22       20        4 1
  23       20       12 1
  24        2       21 1
  25       21       22 2
  26       22       23 1
  27       23       24 2
  28       24       25 1
  29       25       21 1
  30       25       26 1
  31       26       27 ar
  32       27       28 ar
  33       28       29 ar
  34       29       30 ar
  35       30       31 ar
  36       31       26 ar
  37        2       32 1
  38        1       33 1
  39        1       34 1
  40        1       35 1
  41        7       36 1
  42        8       37 1
  43        9       38 1
  44       10       39 1
  45       15       40 1
  46       16       41 1
  47       17       42 1
  48       18       43 1
  49       27       44 1
  50       28       45 1
  51       29       46 1
  52       30       47 1
  53       31       48 1

@<TRIPOS>MOLECULE

  48   53
SMALL
USER_CHARGES
@<TRIPOS>ATOM
   1 C1           1.8776     0.1224     0.1224 C.3          1    LIG   0.0000
   2 C2           1.0000     1.0000     1.0000 C.3          1    LIG   0.0000
   3 S3          -0.0450     2.0450    -0.0450 S.3          1    LIG   0.0000
   4 C4          -0.9576     0.8774    -0.9576 C.2          1    LIG   0.0000
   5 N5          -0.7030    -0.3956    -0.7030 N.2          1    LIG   0.0000
   6 C6          -1.3544    -1.4145    -1.3508 C.ar         1    LIG   0.0000
   7 C7          -1.0990    -2.7591    -1.0951 C.ar         1    LIG   0.0000
   8 C8          -1.7766    -3.7683    -1.7716 C.ar         1    LIG   0.0000
   9 C9          -2.7326    -3.4320    -2.7242 C.ar         1    LIG   0.0000
  10 C10         -2.9908    -2.0898    -2.9816 C.ar         1    LIG   0.0000
  11 C11         -2.3104    -1.0826    -2.3041 C.ar         1    LIG   0.0000
  12 C12         -2.5551     0.2953    -2.5459 C.2          1    LIG   0.0000
  13 N13         -3.4022     0.8559    -3.3818 N.2          1    LIG   0.0000
  14 C14         -3.2888     2.2117    -3.2658 C.ar         1    LIG   0.0000
  15 C15         -3.9844     3.2143    -3.9345 C.ar         1    LIG   0.0000
  16 C16         -3.7307     4.5547    -3.6653 C.ar         1    LIG   0.0000
  17 C17         -2.7691     4.8784    -2.7143 C.ar         1    LIG   0.0000
  18 C18         -2.0911     3.8537    -2.0616 C.ar         1    LIG   0.0000
  19 C19         -2.3309     2.5048    -2.3208 C.ar         1    LIG   0.0000
  20 N20         -1.8903     1.2779    -1.8872 N.pl3        1    LIG   0.0000
  21 C21          1.8786     1.8786     1.8786 C.2          1    LIG   0.0000
  22 N22          2.7596     2.7596     1.4634 N.2          1    LIG   0.0000
  23 N23          3.3069     3.3110     2.5229 N.2          1    LIG   0.0000
  24 N24          2.7937     2.7985     3.5608 N.2          1    LIG   0.0000
  25 N25          1.8970     1.8992     3.2354 N.pl3        1    LIG   0.0000
  26 C26          1.1253     1.1211     4.1071 C.ar         1    LIG   0.0000
  27 C27         -0.2526     1.0504     3.9299 C.ar         1    LIG   0.0000
  28 C28         -1.0114     0.2757     4.8009 C.ar         1    LIG   0.0000
  29 C29         -0.3915    -0.4182     5.8356 C.ar         1    LIG   0.0000
  30 C30          0.9871    -0.3420     6.0053 C.ar         1    LIG   0.0000
  31 C31          1.7534     0.4312     5.1389 C.ar         1    LIG   0.0000
  32 H            0.4226     0.4226     1.5774 H            1    LIG   0.0000
  33 H            2.4549    -0.4549     0.6998 H            1    LIG   0.0000
  34 H            1.3002    -0.4549    -0.4549 H            1    LIG   0.0000
  35 H            2.4549     0.6998    -0.4549 H            1    LIG   0.0000
  36 H           -0.4133    -3.0048    -0.4099 H            1    LIG   0.0000
  37 H           -1.5778    -4.7283    -1.5745 H            1    LIG   0.0000
  38 H           -3.2281    -4.1465    -3.2180 H            1    LIG   0.0000
  39 H           -3.6777    -1.8442    -3.6656 H            1    LIG   0.0000
  40 H           -4.6738     2.9683    -4.6158 H            1    LIG   0.0000
  41 H           -4.2312     5.2737    -4.1474 H            1    LIG   0.0000
  42 H           -2.5677     5.8347    -2.5024 H            1    LIG   0.0000
  43 H           -1.4026     4.0948    -1.3776 H            1    LIG   0.0000
  44 H           -0.6927     1.5510     3.1844 H            1    LIG   0.0000
  45 H           -2.0028     0.2174     4.6835 H            1    LIG   0.0000
  46 H           -0.9397    -0.9744     6.4602 H            1    LIG   0.0000
  47 H            1.4274    -0.8430     6.7502 H            1    LIG   0.0000
  48 H            2.7447     0.4902     5.2565 H            1    LIG   0.0000
@<TRIPOS>BOND
   1        1        2 1
   2        2        3 1
   3        3        4 1
   4        4        5 2
   5        5        6 1
   6        6        7 ar
   7        7        8 ar
   8        8        9 ar
   9        9       10 ar
  10       10       11 ar
  11       11        6 ar
  12       11       12 1
  13       12       13 2
  14       13       14 1
  15       14       15 ar
  16       15       16 ar
  17       16       17 ar
  18       17       18 ar
  19       18       19 ar
  20       19       14 ar
  21       19       20 1
  22       20        4 1
  23       20       12 1
  24        2       21 1
  25       21       22 2
  26       22       23 1
  27       23       24 2
  28       24       25 1
  29       25       21 1
  30       25       26 1
  31       26       27 ar
  32       27       28 ar
  33       28       29 ar
  34       29       30 ar
  35       30       31 ar
  36       31       26 ar
  37        2       32 1
  38        1       33 1
  39        1       34 1
  40        1       35 1
  41        7       36 1
  42        8       37 1
  43        9       38 1
  44       10       39 1
  45       15       40 1
  46       16       41 1
  47       17       42 1
  48       18       43 1
  49       27       44 1
  50       28       45 1
  51       29       46 1
  52       30       47 1
  53       31       48 1

@<TRIPOS>MOLECULE

  48   53
SMALL
USER_CHARGES
@<TRIPOS>ATOM
   1 C1           1.8776     0.1224     0.1224 C.3          1    LIG   0.0000
   2 C2           1.0000     1.0000     1.0000 C.3          1    LIG   0.0000
   3 S3          -0.0450     2.0450    -0.0450 S.3          1    LIG   0.0000
   4 C4          -0.9576     0.8774    -0.9576 C.2          1    LIG   0.0000
   5 N5          -2.1037     0.4835    -0.4271 N.2          1    LIG   0.0000
   6 C6          -2.9190    -0.4302    -1.0456 C.ar         1    LIG   0.0000
   7 C7          -4.1282    -0.8554    -0.5016 C.ar         1    LIG   0.0000
   8 C8          -4.9308    -1.7854    -1.1543 C.ar         1    LIG   0.0000
   9 C9          -4.5218    -2.3037    -2.3785 C.ar         1    LIG   0.0000
  10 C10         -3.3150    -1.8805    -2.9252 C.ar         1    LIG   0.0000
  11 C11         -2.5137    -0.9510    -2.2691 C.ar         1    LIG   0.0000
  12 C12         -1.2780    -0.5005    -2.8049 C.2          1    LIG   0.0000
  13 N13         -0.6888    -0.8344    -3.9327 N.2          1    LIG   0.0000
  14 C14          0.4844    -0.1420    -4.0274 C.ar         1    LIG   0.0000
  15 C15          1.4363    -0.1567    -5.0423 C.ar         1    LIG   0.0000
  16 C16          2.5739     0.6387    -4.9596 C.ar         1    LIG   0.0000
  17 C17          2.7453     1.4517    -3.8445 C.ar         1    LIG   0.0000
  18 C18          1.7755     1.4453    -2.8469 C.ar         1    LIG   0.0000
  19 C19          0.6304     0.6525    -2.9122 C.ar         1    LIG   0.0000
  20 N20         -0.4951     0.4041    -2.1645 N.pl3        1    LIG   0.0000
  21 C21          1.8786     1.8786     1.8786 C.2          1    LIG   0.0000
  22 N22          2.7596     2.7596     1.4634 N.2          1    LIG   0.0000
  23 N23          3.3069     3.3110     2.5229 N.2          1    LIG   0.0000
  24 N24          2.7937     2.7985     3.5608 N.2          1    LIG   0.0000
  25 N25          1.8970     1.8992     3.2354 N.pl3        1    LIG   0.0000
  26 C26          1.1253     1.1211     4.1071 C.ar         1    LIG   0.0000
  27 C27         -0.2526     1.0504     3.9299 C.ar         1    LIG   0.0000
  28 C28         -1.0114     0.2757     4.8009 C.ar         1    LIG   0.0000
  29 C29         -0.3915    -0.4182     5.8356 C.ar         1    LIG   0.0000
  30 C30          0.9871    -0.3420     6.0053 C.ar         1    LIG   0.0000
  31 C31          1.7534     0.4312     5.1389 C.ar         1    LIG   0.0000
  32 H            0.4226     0.4226     1.5774 H            1    LIG   0.0000
  33 H            2.4549    -0.4549     0.6998 H            1    LIG   0.0000
  34 H            1.3002    -0.4549    -0.4549 H            1    LIG   0.0000
  35 H            2.4549     0.6998    -0.4549 H            1    LIG   0.0000
  36 H           -4.4262    -0.4840     0.3778 H            1    LIG   0.0000
  37 H           -5.7953    -2.0791    -0.7464 H            1    LIG   0.0000
  38 H           -5.0886    -2.9725    -2.8597 H            1    LIG   0.0000
  39 H           -3.0178    -2.2508    -3.8053 H            1    LIG   0.0000
  40 H            1.3009    -0.7453    -5.8392 H            1    LIG   0.0000
  41 H            3.2571     0.6263    -5.6897 H            1    LIG   0.0000
  42 H            3.5546     2.0331    -3.7608 H            1    LIG   0.0000
  43 H            1.9053     2.0343    -2.0493 H            1    LIG   0.0000
  44 H           -0.6927     1.5510     3.1844 H            1    LIG   0.0000
  45 H           -2.0028     0.2174     4.6835 H            1    LIG   0.0000
  46 H           -0.9397    -0.9744     6.4602 H            1    LIG   0.0000
  47 H            1.4274    -0.8430     6.7502 H            1    LIG   0.0000
  48 H            2.7447     0.4902     5.2565 H            1    LIG   0.0000
@<TRIPOS>BOND
   1        1        2 1
   2        2        3 1
   3        3        4 1
   4        4        5 2
   5        5        6 1
   6        6        7 ar
   7        7        8 ar
   8        8        9 ar
   9        9       10 ar
  10       10       11 ar
  11       11        6 ar
  12       11       12 1
  13       12       13 2
  14       13       14 1
  15       14       15 ar
  16       15       16 ar
  17       16       17 ar
  18       17       18 ar
  19       18       19 ar
  20       19       14 ar
  21       19       20 1
  22       20        4 1
  23       20       12 1
  24        2       21 1
  25       21       22 2
  26       22       23 1
  27       23       24 2
  28       24       25 1
  29       25       21 1
  30       25       26 1
  31       26       27 ar
  32       27       28 ar
  33       28       29 ar
  34       29       30 ar
  35       30       31 ar
  36       31       26 ar
  37        2       32 1
  38        1       33 1
  39        1       34 1
  40        1       35 1
  41        7       36 1
  42        8       37 1
  43        9       38 1
  44       10       39 1
  45       15       40 1
  46       16       41 1
  47       17       42 1
  48       18       43 1
  49       27       44 1
  50       28       45 1
  51       29       46 1
  52       30       47 1
  53       31       48 1

@<TRIPOS>MOLECULE

  48   53
SMALL
USER_CHARGES
@<TRIPOS>ATOM
   1 C1           1.8776     0.1224     0.1224 C.3          1    LIG   0.0000
   2 C2           1.0000     1.0000     1.0000 C.3          1    LIG   0.0000
   3 S3          -0.0450     2.0450    -0.0450 S.3          1    LIG   0.0000
   4 C4          -0.9576     0.8774    -0.9576 C.2          1    LIG   0.0000
   5 N5          -0.4271     0.4835    -2.1037 N.2          1    LIG   0.0000
   6 C6          -1.0431    -0.4340    -2.9166 C.ar         1    LIG   0.0000
   7 C7          -0.4989    -0.8595    -4.1255 C.ar         1    LIG   0.0000
   8 C8          -1.1510    -1.7906    -4.9274 C.ar         1    LIG   0.0000
   9 C9          -2.3729    -2.3125    -4.5162 C.ar         1    LIG   0.0000
  10 C10         -2.9190    -1.8902    -3.3088 C.ar         1    LIG   0.0000
  11 C11         -2.2649    -0.9577    -2.5094 C.ar         1    LIG   0.0000
  12 C12         -2.7987    -0.5102    -1.2718 C.2          1    LIG   0.0000
  13 N13         -3.9190    -0.8558    -0.6751 N.2          1    LIG   0.0000
  14 C14         -4.0120    -0.1662     0.4998 C.ar         1    LIG   0.0000
  15 C15         -5.0088    -0.2090     1.4698 C.ar         1    LIG   0.0000
  16 C16         -4.9157     0.5702     2.6177 C.ar         1    LIG   0.0000
  17 C17         -3.8077     1.3942     2.7821 C.ar         1    LIG   0.0000
  18 C18         -2.8271     1.4144     1.7953 C.ar         1    LIG   0.0000
  19 C19         -2.9054     0.6419     0.6371 C.ar         1    LIG   0.0000
  20 N20         -2.1624     0.4009    -0.4930 N.pl3        1    LIG   0.0000
  21 C21          1.8786     1.8786     1.8786 C.2          1    LIG   0.0000
  22 N22          2.7596     2.7596     1.4634 N.2          1    LIG   0.0000
  23 N23          3.3069     3.3110     2.5229 N.2          1    LIG   0.0000
  24 N24          2.7937     2.7985     3.5608 N.2          1    LIG   0.0000
  25 N25          1.8970     1.8992     3.2354 N.pl3        1    LIG   0.0000
  26 C26          1.1253     1.1211     4.1071 C.ar         1    LIG   0.0000
  27 C27         -0.2526     1.0504     3.9299 C.ar         1    LIG   0.0000
  28 C28         -1.0114     0.2757     4.8009 C.ar         1    LIG   0.0000
  29 C29         -0.3915    -0.4182     5.8356 C.ar         1    LIG   0.0000
  30 C30          0.9871    -0.3420     6.0053 C.ar         1    LIG   0.0000
  31 C31          1.7534     0.4312     5.1389 C.ar         1    LIG   0.0000
  32 H            0.4226     0.4226     1.5774 H            1    LIG   0.0000
  33 H            2.4549    -0.4549     0.6998 H            1    LIG   0.0000
  34 H            1.3002    -0.4549    -0.4549 H            1    LIG   0.0000
  35 H            2.4549     0.6998    -0.4549 H            1    LIG   0.0000
  36 H            0.3800    -0.4876    -4.4239 H            1    LIG   0.0000
  37 H           -0.7442    -2.0826    -5.7931 H            1    LIG   0.0000
  38 H           -2.8529    -2.9831    -5.0818 H            1    LIG   0.0000
  39 H           -3.7972    -2.2634    -3.0098 H            1    LIG   0.0000
  40 H           -5.8003    -0.8062     1.3399 H            1    LIG   0.0000
  41 H           -5.6335     0.5384     3.3133 H            1    LIG   0.0000
  42 H           -3.7169     1.9645     3.5985 H            1    LIG   0.0000
  43 H           -2.0325     2.0081     1.9220 H            1    LIG   0.0000
  44 H           -0.6927     1.5510     3.1844 H            1    LIG   0.0000
  45 H           -2.0028     0.2174     4.6835 H            1    LIG   0.0000
  46 H           -0.9397    -0.9744     6.4602 H            1    LIG   0.0000
  47 H            1.4274    -0.8430     6.7502 H            1    LIG   0.0000
  48 H            2.7447     0.4902     5.2565 H            1    LIG   0.0000
@<TRIPOS>BOND
   1        1        2 1
   2        2        3 1
   3        3        4 1
   4        4        5 2
   5        5        6 1
   6        6        7 ar
   7        7        8 ar
   8        8        9 ar
   9        9       10 ar
  10       10       11 ar
  11       11        6 ar
  12       11       12 1
  13       12       13 2
  14       13       14 1
  15       14       15 ar
  16       15       16 ar
  17       16       17 ar
  18       17       18 ar
  19       18       19 ar
  20       19       14 ar
  21       19       20 1
  22       20        4 1
  23       20       12 1
  24        2       21 1
  25       21       22 2
  26       22       23 1
  27       23       24 2
  28       24       25 1
  29       25       21 1
  30       25       26 1
  31       26       27 ar
  32       27       28 ar
  33       28       29 ar
  34       29       30 ar
  35       30       31 ar
  36       31       26 ar
  37        2       32 1
  38        1       33 1
  39        1       34 1
  40        1       35 1
  41        7       36 1
  42        8       37 1
  43        9       38 1
  44       10       39 1
  45       15       40 1
  46       16       41 1
  47       17       42 1
  48       18       43 1
  49       27       44 1
  50       28       45 1
  51       29       46 1
  52       30       47 1
  53       31       48 1

@<TRIPOS>MOLECULE

  48   53
SMALL
USER_CHARGES
@<TRIPOS>ATOM
   1 C1           1.8776     0.1224     0.1224 C.3          1    LIG   0.0000
   2 C2           1.0000     1.0000     1.0000 C.3          1    LIG   0.0000
   3 S3          -0.0450     2.0450    -0.0450 S.3          1    LIG   0.0000
   4 C4          -1.1556     2.7385     1.1015 C.2          1    LIG   0.0000
   5 N5          -0.7887     3.8820     1.6564 N.2          1    LIG   0.0000
   6 C6          -1.5737     4.5340     2.5733 C.ar         1    LIG   0.0000
   7 C7          -1.2031     5.7379     3.1666 C.ar         1    LIG   0.0000
   8 C8          -2.0223     6.3723     4.0949 C.ar         1    LIG   0.0000
   9 C9          -3.2403     5.7964     4.4401 C.ar         1    LIG   0.0000
  10 C10         -3.6141     4.5943     3.8487 C.ar         1    LIG   0.0000
  11 C11         -2.7918     3.9614     2.9214 C.ar         1    LIG   0.0000
  12 C12         -3.1491     2.7347     2.3014 C.2          1    LIG   0.0000
  13 N13         -4.2352     2.0089     2.4570 N.2          1    LIG   0.0000
  14 C14         -4.1395     0.9115     1.6501 C.ar         1    LIG   0.0000
  15 C15         -5.0452    -0.1289     1.4671 C.ar         1    LIG   0.0000
  16 C16         -4.7679    -1.1633     0.5801 C.ar         1    LIG   0.0000
  17 C17         -3.5686    -1.1412    -0.1235 C.ar         1    LIG   0.0000
  18 C18         -2.6839    -0.0870     0.0802 C.ar         1    LIG   0.0000
  19 C19         -2.9446     0.9569     0.9671 C.ar         1    LIG   0.0000
  20 N20         -2.3466     2.1160     1.3989 N.pl3        1    LIG   0.0000
  21 C21          1.8786     1.8786     1.8786 C.2          1    LIG   0.0000
  22 N22          2.7596     2.7596     1.4634 N.2          1    LIG   0.0000
  23 N23          3.3069     3.3110     2.5229 N.2          1    LIG   0.0000
  24 N24          2.7937     2.7985     3.5608 N.2          1    LIG   0.0000
  25 N25          1.8970     1.8992     3.2354 N.pl3        1    LIG   0.0000
  26 C26          1.1253     1.1211     4.1071 C.ar         1    LIG   0.0000
  27 C27         -0.2526     1.0504     3.9299 C.ar         1    LIG   0.0000
  28 C28         -1.0114     0.2757     4.8009 C.ar         1    LIG   0.0000
  29 C29         -0.3915    -0.4182     5.8356 C.ar         1    LIG   0.0000
  30 C30          0.9871    -0.3420     6.0053 C.ar         1    LIG   0.0000
  31 C31          1.7534     0.4312     5.1389 C.ar         1    LIG   0.0000
  32 H            0.4226     0.4226     1.5774 H            1    LIG   0.0000
  33 H            2.4549    -0.4549     0.6998 H            1    LIG   0.0000
  34 H            1.3002    -0.4549    -0.4549 H            1    LIG   0.0000
  35 H            2.4549     0.6998    -0.4549 H            1    LIG   0.0000
  36 H           -0.3287     6.1557     2.9200 H            1    LIG   0.0000
  37 H           -1.7375     7.2359     4.5109 H            1    LIG   0.0000
  38 H           -3.8400     6.2412     5.1053 H            1    LIG   0.0000
  39 H           -4.4892     4.1774     4.0943 H            1    LIG   0.0000
  40 H           -5.9044    -0.1327     1.9787 H            1    LIG   0.0000
  41 H           -5.4198    -1.9104     0.4505 H            1    LIG   0.0000
  42 H           -3.3452    -1.8731    -0.7672 H            1    LIG   0.0000
  43 H           -1.8246    -0.0774    -0.4311 H            1    LIG   0.0000
  44 H           -0.6927     1.5510     3.1844 H            1    LIG   0.0000
  45 H           -2.0028     0.2174     4.6835 H            1    LIG   0.0000
  46 H           -0.9397    -0.9744     6.4602 H            1    LIG   0.0000
  47 H            1.4274    -0.8430     6.7502 H            1    LIG   0.0000
  48 H            2.7447     0.4902     5.2565 H            1    LIG   0.0000
@<TRIPOS>BOND
   1        1        2 1
   2        2        3 1
   3        3        4 1
   4        4        5 2
   5        5        6 1
   6        6        7 ar
   7        7        8 ar
   8        8        9 ar
   9        9       10 ar
  10       10       11 ar
  11       11        6 ar
  12       11       12 1
  13       12       13 2
  14       13       14 1
  15       14       15 ar
  16       15       16 ar
  17       16       17 ar
  18       17       18 ar
  19       18       19 ar
  20       19       14 ar
  21       19       20 1
  22       20        4 1
  23       20       12 1
  24        2       21 1
  25       21       22 2
  26       22       23 1
  27       23       24 2
  28       24       25 1
  29       25       21 1
  30       25       26 1
  31       26       27 ar
  32       27       28 ar
  33       28       29 ar
  34       29       30 ar
  35       30       31 ar
  36       31       26 ar
  37        2       32 1
  38        1       33 1
  39        1       34 1
  40        1       35 1
  41        7       36 1
  42        8       37 1
  43        9       38 1
  44       10       39 1
  45       15       40 1
  46       16       41 1
  47       17       42 1
  48       18       43 1
  49       27       44 1
  50       28       45 1
  51       29       46 1
  52       30       47 1
  53       31       48 1

@<TRIPOS>MOLECULE

  48   53
SMALL
USER_CHARGES
@<TRIPOS>ATOM
   1 C1           1.8776     0.1224     0.1224 C.3          1    LIG   0.0000
   2 C2           1.0000     1.0000     1.0000 C.3          1    LIG   0.0000
   3 S3          -0.0450     2.0450    -0.0450 S.3          1    LIG   0.0000
   4 C4          -1.1556     2.7385     1.1015 C.2          1    LIG   0.0000
   5 N5          -2.2718     2.0628     1.3202 N.2          1    LIG   0.0000
   6 C6          -3.2286     2.4986     2.2015 C.ar         1    LIG   0.0000
   7 C7          -4.4085     1.8000     2.4435 C.ar         1    LIG   0.0000
   8 C8          -5.3596     2.2710     3.3428 C.ar         1    LIG   0.0000
   9 C9          -5.1309     3.4648     4.0190 C.ar         1    LIG   0.0000
  10 C10         -3.9530     4.1647     3.7802 C.ar         1    LIG   0.0000
  11 C11         -3.0041     3.6915     2.8790 C.ar         1    LIG   0.0000
  12 C12         -1.7926     4.3849     2.6172 C.2          1    LIG   0.0000
  13 N13         -1.3528     5.5143     3.1288 N.2          1    LIG   0.0000
  14 C14         -0.1340     5.7908     2.5788 C.ar         1    LIG   0.0000
  15 C15          0.7171     6.8653     2.8182 C.ar         1    LIG   0.0000
  16 C16          1.9374     6.9645     2.1590 C.ar         1    LIG   0.0000
  17 C17          2.2952     5.9702     1.2551 C.ar         1    LIG   0.0000
  18 C18          1.4236     4.9077     1.0379 C.ar         1    LIG   0.0000
  19 C19          0.1954     4.7936     1.6880 C.ar         1    LIG   0.0000
  20 N20         -0.8680     3.9251     1.7368 N.pl3        1    LIG   0.0000
  21 C21          1.8786     1.8786     1.8786 C.2          1    LIG   0.0000
  22 N22          2.7596     2.7596     1.4634 N.2          1    LIG   0.0000
  23 N23          3.3069     3.3110     2.5229 N.2          1    LIG   0.0000
  24 N24          2.7937     2.7985     3.5608 N.2          1    LIG   0.0000
  25 N25          1.8970     1.8992     3.2354 N.pl3        1    LIG   0.0000
  26 C26          1.1253     1.1211     4.1071 C.ar         1    LIG   0.0000
  27 C27         -0.2526     1.0504     3.9299 C.ar         1    LIG   0.0000
  28 C28         -1.0114     0.2757     4.8009 C.ar         1    LIG   0.0000
  29 C29         -0.3915    -0.4182     5.8356 C.ar         1    LIG   0.0000
  30 C30          0.9871    -0.3420     6.0053 C.ar         1    LIG   0.0000
  31 C31          1.7534     0.4312     5.1389 C.ar         1    LIG   0.0000
  32 H            0.4226     0.4226     1.5774 H            1    LIG   0.0000
  33 H            2.4549    -0.4549     0.6998 H            1    LIG   0.0000
  34 H            1.3002    -0.4549    -0.4549 H            1    LIG   0.0000
  35 H            2.4549     0.6998    -0.4549 H            1    LIG   0.0000
  36 H           -4.5759     0.9407     1.9603 H            1    LIG   0.0000
  37 H           -6.2014     1.7552     3.5019 H            1    LIG   0.0000
  38 H           -5.8052     3.8155     4.6689 H            1    LIG   0.0000
  39 H           -3.7850     5.0232     4.2647 H            1    LIG   0.0000
  40 H            0.4483     7.5735     3.4710 H            1    LIG   0.0000
  41 H            2.5473     7.7379     2.3320 H            1    LIG   0.0000
  42 H            3.1672     6.0181     0.7680 H            1    LIG   0.0000
  43 H            1.6893     4.1957     0.3879 H            1    LIG   0.0000
  44 H           -0.6927     1.5510     3.1844 H            1    LIG   0.0000
  45 H           -2.0028     0.2174     4.6835 H            1    LIG   0.0000
  46 H           -0.9397    -0.9744     6.4602 H            1    LIG   0.0000
  47 H            1.4274    -0.8430     6.7502 H            1    LIG   0.0000
  48 H            2.7447     0.4902     5.2565 H            1    LIG   0.0000
@<TRIPOS>BOND
   1        1        2 1
   2        2        3 1
   3        3        4 1
   4        4        5 2
   5        5        6 1
   6        6        7 ar
   7        7        8 ar
   8        8        9 ar
   9        9       10 ar
  10       10       11 ar
  11       11        6 ar
  12       11       12 1
  13       12       13 2
  14       13       14 1
  15       14       15 ar
  16       15       16 ar
  17       16       17 ar
  18       17       18 ar
  19       18       19 ar
  20       19       14 ar
  21       19       20 1
  22       20        4 1
  23       20       12 1
  24        2       21 1
  25       21       22 2
  26       22       23 1
  27       23       24 2
  28       24       25 1
  29       25       21 1
  30       25       26 1
  31       26       27 ar
  32       27       28 ar
  33       28       29 ar
  34       29       30 ar
  35       30       31 ar
  36       31       26 ar
  37        2       32 1
  38        1       33 1
  39        1       34 1
  40        1       35 1
  41        7       36 1
  42        8       37 1
  43        9       38 1
  44       10       39 1
  45       15       40 1
  46       16       41 1
  47       17       42 1
  48       18       43 1
  49       27       44 1
  50       28       45 1
  51       29       46 1
  52       30       47 1
  53       31       48 1

@<TRIPOS>MOLECULE

  48   53
SMALL
USER_CHARGES
@<TRIPOS>ATOM
   1 C1           1.8776     0.1224     0.1224 C.3          1    LIG   0.0000
   2 C2           1.0000     1.0000     1.0000 C.3          1    LIG   0.0000
   3 S3          -0.0450     2.0450    -0.0450 S.3          1    LIG   0.0000
   4 C4           1.1015     2.7385    -1.1556 C.2          1    LIG   0.0000
   5 N5           1.3202     2.0628    -2.2718 N.2          1    LIG   0.0000
   6 C6           2.1977     2.5011    -3.2309 C.ar         1    LIG   0.0000
   7 C7           2.4395     1.8028    -4.4110 C.ar         1    LIG   0.0000
   8 C8           3.3377     2.2746    -5.3627 C.ar         1    LIG   0.0000
   9 C9           4.0103     3.4707    -5.1362 C.ar         1    LIG   0.0000
  10 C10          3.7706     4.1713    -3.9589 C.ar         1    LIG   0.0000
  11 C11          2.8724     3.6960    -3.0081 C.ar         1    LIG   0.0000
  12 C12          2.6076     4.3915    -1.7985 C.2          1    LIG   0.0000
  13 N13          3.1075     5.5288    -1.3658 N.2          1    LIG   0.0000
  14 C14          2.5547     5.8072    -0.1486 C.ar         1    LIG   0.0000
  15 C15          2.7661     6.9008     0.6854 C.ar         1    LIG   0.0000
  16 C16          2.0907     7.0110     1.8959 C.ar         1    LIG   0.0000
  17 C17          1.1978     6.0091     2.2604 C.ar         1    LIG   0.0000
  18 C18          1.0071     4.9287     1.4049 C.ar         1    LIG   0.0000
  19 C19          1.6775     4.8008     0.1890 C.ar         1    LIG   0.0000
  20 N20          1.7336     3.9274    -0.8700 N.pl3        1    LIG   0.0000
  21 C21          1.8786     1.8786     1.8786 C.2          1    LIG   0.0000
  22 N22          2.7596     2.7596     1.4634 N.2          1    LIG   0.0000
  23 N23          3.3069     3.3110     2.5229 N.2          1    LIG   0.0000
  24 N24          2.7937     2.7985     3.5608 N.2          1    LIG   0.0000
  25 N25          1.8970     1.8992     3.2354 N.pl3        1    LIG   0.0000
  26 C26          1.1253     1.1211     4.1071 C.ar         1    LIG   0.0000
  27 C27         -0.2526     1.0504     3.9299 C.ar         1    LIG   0.0000
  28 C28         -1.0114     0.2757     4.8009 C.ar         1    LIG   0.0000
  29 C29         -0.3915    -0.4182     5.8356 C.ar         1    LIG   0.0000
  30 C30          0.9871    -0.3420     6.0053 C.ar         1    LIG   0.0000
  31 C31          1.7534     0.4312     5.1389 C.ar         1    LIG   0.0000
  32 H            0.4226     0.4226     1.5774 H            1    LIG   0.0000
  33 H            2.4549    -0.4549     0.6998 H            1    LIG   0.0000
  34 H            1.3002    -0.4549    -0.4549 H            1    LIG   0.0000
  35 H            2.4549     0.6998    -0.4549 H            1    LIG   0.0000
  36 H            1.9568     0.9431    -4.5780 H            1    LIG   0.0000
  37 H            3.4985     1.7576    -6.2035 H            1    LIG   0.0000
  38 H            4.6584     3.8226    -5.8116 H            1    LIG   0.0000
  39 H            4.2521     5.0318    -3.7927 H            1    LIG   0.0000
  40 H            3.4104     7.6148     0.4114 H            1    LIG   0.0000
  41 H            2.2444     7.7974     2.4941 H            1    LIG   0.0000
  42 H            0.6996     6.0645     3.1257 H            1    LIG   0.0000
  43 H            0.3618     4.2135     1.6734 H            1    LIG   0.0000
  44 H           -0.6927     1.5510     3.1844 H            1    LIG   0.0000
  45 H           -2.0028     0.2174     4.6835 H            1    LIG   0.0000
  46 H           -0.9397    -0.9744     6.4602 H            1    LIG   0.0000
  47 H            1.4274    -0.8430     6.7502 H            1    LIG   0.0000
  48 H            2.7447     0.4902     5.2565 H            1    LIG   0.0000
@<TRIPOS>BOND
   1        1        2 1
   2        2        3 1
   3        3        4 1
   4        4        5 2
   5        5        6 1
   6        6        7 ar
   7        7        8 ar
   8        8        9 ar
   9        9       10 ar
  10       10       11 ar
  11       11        6 ar
  12       11       12 1
  13       12       13 2
  14       13       14 1
  15       14       15 ar
  16       15       16 ar
  17       16       17 ar
  18       17       18 ar
  19       18       19 ar
  20       19       14 ar
  21       19       20 1
  22       20        4 1
  23       20       12 1
  24        2       21 1
  25       21       22 2
  26       22       23 1
  27       23       24 2
  28       24       25 1
  29       25       21 1
  30       25       26 1
  31       26       27 ar
  32       27       28 ar
  33       28       29 ar
  34       29       30 ar
  35       30       31 ar
  36       31       26 ar
  37        2       32 1
  38        1       33 1
  39        1       34 1
  40        1       35 1
  41        7       36 1
  42        8       37 1
  43        9       38 1
  44       10       39 1
  45       15       40 1
  46       16       41 1
  47       17       42 1
  48       18       43 1
  49       27       44 1
  50       28       45 1
  51       29       46 1
  52       30       47 1
  53       31       48 1

@<TRIPOS>MOLECULE

  48   53
SMALL
USER_CHARGES
@<TRIPOS>ATOM
   1 C1           1.8776     0.1224     0.1224 C.3          1    LIG   0.0000
   2 C2           1.0000     1.0000     1.0000 C.3          1    LIG   0.0000
   3 S3          -0.0450     2.0450    -0.0450 S.3          1    LIG   0.0000
   4 C4           1.1015     2.7385    -1.1556 C.2          1    LIG   0.0000
   5 N5           1.6564     3.8820    -0.7887 N.2          1    LIG   0.0000
   6 C6           2.5771     4.5314    -1.5714 C.ar         1    LIG   0.0000
   7 C7           3.1707     5.7351    -1.2006 C.ar         1    LIG   0.0000
   8 C8           4.1001     6.3688    -2.0191 C.ar         1    LIG   0.0000
   9 C9           4.4488     5.7904    -3.2350 C.ar         1    LIG   0.0000
  10 C10          3.8584     4.5877    -3.6082 C.ar         1    LIG   0.0000
  11 C11          2.9280     3.9569    -2.7878 C.ar         1    LIG   0.0000
  12 C12          2.3111     2.7281    -3.1432 C.2          1    LIG   0.0000
  13 N13          2.4784     1.9944    -4.2222 N.2          1    LIG   0.0000
  14 C14          1.6741     0.8952    -4.1249 C.ar         1    LIG   0.0000
  15 C15          1.5191    -0.1643    -5.0136 C.ar         1    LIG   0.0000
  16 C16          0.6485    -1.2097    -4.7264 C.ar         1    LIG   0.0000
  17 C17         -0.0662    -1.1802    -3.5338 C.ar         1    LIG   0.0000
  18 C18          0.1110    -0.1079    -2.6652 C.ar         1    LIG   0.0000
  19 C19          0.9777     0.9497    -2.9382 C.ar         1    LIG   0.0000
  20 N20          1.4021     2.1138    -2.3446 N.pl3        1    LIG   0.0000
  21 C21          1.8786     1.8786     1.8786 C.2          1    LIG   0.0000
  22 N22          2.7596     2.7596     1.4634 N.2          1    LIG   0.0000
  23 N23          3.3069     3.3110     2.5229 N.2          1    LIG   0.0000
  24 N24          2.7937     2.7985     3.5608 N.2          1    LIG   0.0000
  25 N25          1.8970     1.8992     3.2354 N.pl3        1    LIG   0.0000
  26 C26          1.1253     1.1211     4.1071 C.ar         1    LIG   0.0000
  27 C27         -0.2526     1.0504     3.9299 C.ar         1    LIG   0.0000
  28 C28         -1.0114     0.2757     4.8009 C.ar         1    LIG   0.0000
  29 C29         -0.3915    -0.4182     5.8356 C.ar         1    LIG   0.0000
  30 C30          0.9871    -0.3420     6.0053 C.ar         1    LIG   0.0000
  31 C31          1.7534     0.4312     5.1389 C.ar         1    LIG   0.0000
  32 H            0.4226     0.4226     1.5774 H            1    LIG   0.0000
  33 H            2.4549    -0.4549     0.6998 H            1    LIG   0.0000
  34 H            1.3002    -0.4549    -0.4549 H            1    LIG   0.0000
  35 H            2.4549     0.6998    -0.4549 H            1    LIG   0.0000
  36 H            2.9235     6.1533    -0.3265 H            1    LIG   0.0000
  37 H            4.5143     7.2336    -1.7354 H            1    LIG   0.0000
  38 H            5.1159     6.2340    -3.8336 H            1    LIG   0.0000
  39 H            4.1068     4.1688    -4.4816 H            1    LIG   0.0000
  40 H            2.0393    -0.1740    -5.8676 H            1    LIG   0.0000
  41 H            0.5380    -1.9700    -5.3666 H            1    LIG   0.0000
  42 H           -0.6989    -1.9196    -3.3036 H            1    LIG   0.0000
  43 H           -0.4050    -0.0952    -1.8087 H            1    LIG   0.0000
  44 H           -0.6927     1.5510     3.1844 H            1    LIG   0.0000
  45 H           -2.0028     0.2174     4.6835 H            1    LIG   0.0000
  46 H           -0.9397    -0.9744     6.4602 H            1    LIG   0.0000
  47 H            1.4274    -0.8430     6.7502 H            1    LIG   0.0000
  48 H            2.7447     0.4902     5.2565 H            1    LIG   0.0000
@<TRIPOS>BOND
   1        1        2 1
   2        2        3 1
   3        3        4 1
   4        4        5 2
   5        5        6 1
   6        6        7 ar
   7        7        8 ar
   8        8        9 ar
   9        9       10 ar
  10       10       11 ar
  11       11        6 ar
  12       11       12 1
  13       12       13 2
  14       13       14 1
  15       14       15 ar
  16       15       16 ar
  17       16       17 ar
  18       17       18 ar
  19       18       19 ar
  20       19       14 ar
  21       19       20 1
  22       20        4 1
  23       20       12 1
  24        2       21 1
  25       21       22 2
  26       22       23 1
  27       23       24 2
  28       24       25 1
  29       25       21 1
  30       25       26 1
  31       26       27 ar
  32       27       28 ar
  33       28       29 ar
  34       29       30 ar
  35       30       31 ar
  36       31       26 ar
  37        2       32 1
  38        1       33 1
  39        1       34 1
  40        1       35 1
  41        7       36 1
  42        8       37 1
  43        9       38 1
  44       10       39 1
  45       15       40 1
  46       16       41 1
  47       17       42 1
  48       18       43 1
  49       27       44 1
  50       28       45 1
  51       29       46 1
  52       30       47 1
  53       31       48 1

