@<TRIPOS>MOLECULE
*****
 48 53 0 0 0
SMALL
USER_CHARGES

@<TRIPOS>ATOM
      1 C1          1.8776    0.1224    0.1224 C.3     1  LIG1        0.0000
      2 C2          1.0000    1.0000    1.0000 C.3     1  LIG1        0.0000
      3 S3         -0.0450    2.0450   -0.0450 S.3     1  LIG1        0.0000
      4 C4          1.1015    2.7385   -1.1556 C.2     1  LIG1        0.0000
      5 N5          1.3202    2.0628   -2.2718 N.2     1  LIG1        0.0000
      6 C6          2.1977    2.5011   -3.2309 C.ar    1  LIG1        0.0000
      7 C7          2.4395    1.8028   -4.4110 C.ar    1  LIG1        0.0000
      8 C8          3.3377    2.2746   -5.3627 C.ar    1  LIG1        0.0000
      9 C9          4.0103    3.4707   -5.1362 C.ar    1  LIG1        0.0000
     10 C10         3.7706    4.1713   -3.9589 C.ar    1  LIG1        0.0000
     11 C11         2.8724    3.6960   -3.0081 C.ar    1  LIG1        0.0000
     12 C12         2.6076    4.3915   -1.7985 C.2     1  LIG1        0.0000
     13 N13         3.1075    5.5288   -1.3658 N.2     1  LIG1        0.0000
     14 C14         2.5547    5.8072   -0.1486 C.ar    1  LIG1        0.0000
     15 C15         2.7661    6.9008    0.6854 C.ar    1  LIG1        0.0000
     16 C16         2.0907    7.0110    1.8959 C.ar    1  LIG1        0.0000
     17 C17         1.1978    6.0091    2.2604 C.ar    1  LIG1        0.0000
     18 C18         1.0071    4.9287    1.4049 C.ar    1  LIG1        0.0000
     19 C19         1.6775    4.8008    0.1890 C.ar    1  LIG1        0.0000
     20 N20         1.7336    3.9274   -0.8700 N.pl3   1  LIG1        0.0000
     21 C21         1.8786    1.8786    1.8786 C.2     1  LIG1        0.0000
     22 N22         2.7596    2.7596    1.4634 N.2     1  LIG1        0.0000
     23 N23         3.3069    3.3110    2.5229 N.2     1  LIG1        0.0000
     24 N24         2.7937    2.7985    3.5608 N.2     1  LIG1        0.0000
     25 N25         1.8970    1.8992    3.2354 N.pl3   1  LIG1        0.0000
     26 C26         1.1253    1.1211    4.1071 C.ar    1  LIG1        0.0000
     27 C27        -0.2526    1.0504    3.9299 C.ar    1  LIG1        0.0000
     28 C28        -1.0114    0.2757    4.8009 C.ar    1  LIG1        0.0000
     29 C29        -0.3915   -0.4182    5.8356 C.ar    1  LIG1        0.0000
     30 C30         0.9871   -0.3420    6.0053 C.ar    1  LIG1        0.0000
     31 C31         1.7534    0.4312    5.1389 C.ar    1  LIG1        0.0000
     32 H           0.4226    0.4226    1.5774 H       1  LIG1        0.0000
     33 H           2.4549   -0.4549    0.6998 H       1  LIG1        0.0000
     34 H           1.3002   -0.4549   -0.4549 H       1  LIG1        0.0000
     35 H           2.4549    0.6998   -0.4549 H       1  LIG1        0.0000
     36 H           1.9568    0.9431   -4.5780 H       1  LIG1        0.0000
     37 H           3.4985    1.7576   -6.2035 H       1  LIG1        0.0000
     38 H           4.6584    3.8226   -5.8116 H       1  LIG1        0.0000
     39 H           4.2521    5.0318   -3.7927 H       1  LIG1        0.0000
     40 H           3.4104    7.6148    0.4114 H       1  LIG1        0.0000
     41 H           2.2444    7.7974    2.4941 H       1  LIG1        0.0000
     42 H           0.6996    6.0645    3.1257 H       1  LIG1        0.0000
     43 H           0.3618    4.2135    1.6734 H       1  LIG1        0.0000
     44 H          -0.6927    1.5510    3.1844 H       1  LIG1        0.0000
     45 H          -2.0028    0.2174    4.6835 H       1  LIG1        0.0000
     46 H          -0.9397   -0.9744    6.4602 H       1  LIG1        0.0000
     47 H           1.4274   -0.8430    6.7502 H       1  LIG1        0.0000
     48 H           2.7447    0.4902    5.2565 H       1  LIG1        0.0000
@<TRIPOS>BOND
     1     1     2    1
     2     2     3    1
     3     3     4    1
     4     4     5    2
     5     5     6    1
     6     6     7   ar
     7     7     8   ar
     8     8     9   ar
     9     9    10   ar
    10    10    11   ar
    11    11     6   ar
    12    11    12    1
    13    12    13    2
    14    13    14    1
    15    14    15   ar
    16    15    16   ar
    17    16    17   ar
    18    17    18   ar
    19    18    19   ar
    20    19    14   ar
    21    19    20    1
    22    20     4    1
    23    20    12    1
    24     2    21    1
    25    21    22    2
    26    22    23    1
    27    23    24    2
    28    24    25    1
    29    25    21    1
    30    25    26    1
    31    26    27   ar
    32    27    28   ar
    33    28    29   ar
    34    29    30   ar
    35    30    31   ar
    36    31    26   ar
    37     2    32    1
    38     1    33    1
    39     1    34    1
    40     1    35    1
    41     7    36    1
    42     8    37    1
    43     9    38    1
    44    10    39    1
    45    15    40    1
    46    16    41    1
    47    17    42    1
    48    18    43    1
    49    27    44    1
    50    28    45    1
    51    29    46    1
    52    30    47    1
    53    31    48    1
