@<TRIPOS>MOLECULE
*****
 48 53 0 0 0
SMALL
USER_CHARGES

@<TRIPOS>ATOM
      1 C1          1.8776    0.1224    0.1224 C.3     1  LIG1        0.0000
      2 C2          1.0000    1.0000    1.0000 C.3     1  LIG1        0.0000
      3 S3         -0.0450    2.0450   -0.0450 S.3     1  LIG1        0.0000
      4 C4         -1.1556    2.7385    1.1015 C.2     1  LIG1        0.0000
      5 N5         -2.2718    2.0628    1.3202 N.2     1  LIG1        0.0000
      6 C6         -3.2286    2.4986    2.2015 C.ar    1  LIG1        0.0000
      7 C7         -4.4085    1.8000    2.4435 C.ar    1  LIG1        0.0000
      8 C8         -5.3596    2.2710    3.3428 C.ar    1  LIG1        0.0000
      9 C9         -5.1309    3.4648    4.0190 C.ar    1  LIG1        0.0000
     10 C10        -3.9530    4.1647    3.7802 C.ar    1  LIG1        0.0000
     11 C11        -3.0041    3.6915    2.8790 C.ar    1  LIG1        0.0000
     12 C12        -1.7926    4.3849    2.6172 C.2     1  LIG1        0.0000
     13 N13        -1.3528    5.5143    3.1288 N.2     1  LIG1        0.0000
     14 C14        -0.1340    5.7908    2.5788 C.ar    1  LIG1        0.0000
     15 C15         0.7171    6.8653    2.8182 C.ar    1  LIG1        0.0000
     16 C16         1.9374    6.9645    2.1590 C.ar    1  LIG1        0.0000
     17 C17         2.2952    5.9702    1.2551 C.ar    1  LIG1        0.0000
     18 C18         1.4236    4.9077    1.0379 C.ar    1  LIG1        0.0000
     19 C19         0.1954    4.7936    1.6880 C.ar    1  LIG1        0.0000
     20 N20        -0.8680    3.9251    1.7368 N.pl3   1  LIG1        0.0000
     21 C21         1.8786    1.8786    1.8786 C.2     1  LIG1        0.0000
     22 N22         2.7596    2.7596    1.4634 N.2     1  LIG1        0.0000
     23 N23         3.3069    3.3110    2.5229 N.2     1  LIG1        0.0000
     24 N24         2.7937    2.7985    3.5608 N.2     1  LIG1        0.0000
     25 N25         1.8970    1.8992    3.2354 N.pl3   1  LIG1        0.0000
     26 C26         1.1253    1.1211    4.1071 C.ar    1  LIG1        0.0000
     27 C27        -0.2526    1.0504    3.9299 C.ar    1  LIG1        0.0000
     28 C28        -1.0114    0.2757    4.8009 C.ar    1  LIG1        0.0000
     29 C29        -0.3915   -0.4182    5.8356 C.ar    1  LIG1        0.0000
     30 C30         0.9871   -0.3420    6.0053 C.ar    1  LIG1        0.0000
     31 C31         1.7534    0.4312    5.1389 C.ar    1  LIG1        0.0000
     32 H           0.4226    0.4226    1.5774 H       1  LIG1        0.0000
     33 H           2.4549   -0.4549    0.6998 H       1  LIG1        0.0000
     34 H           1.3002   -0.4549   -0.4549 H       1  LIG1        0.0000
     35 H           2.4549    0.6998   -0.4549 H       1  LIG1        0.0000
     36 H          -4.5759    0.9407    1.9603 H       1  LIG1        0.0000
     37 H          -6.2014    1.7552    3.5019 H       1  LIG1        0.0000
     38 H          -5.8052    3.8155    4.6689 H       1  LIG1        0.0000
     39 H          -3.7850    5.0232    4.2647 H       1  LIG1        0.0000
     40 H           0.4483    7.5735    3.4710 H       1  LIG1        0.0000
     41 H           2.5473    7.7379    2.3320 H       1  LIG1        0.0000
     42 H           3.1672    6.0181    0.7680 H       1  LIG1        0.0000
     43 H           1.6893    4.1957    0.3879 H       1  LIG1        0.0000
     44 H          -0.6927    1.5510    3.1844 H       1  LIG1        0.0000
     45 H          -2.0028    0.2174    4.6835 H       1  LIG1        0.0000
     46 H          -0.9397   -0.9744    6.4602 H       1  LIG1        0.0000
     47 H           1.4274   -0.8430    6.7502 H       1  LIG1        0.0000
     48 H           2.7447    0.4902    5.2565 H       1  LIG1        0.0000
@<TRIPOS>BOND
     1     1     2    1
     2     2     3    1
     3     3     4    1
     4     4     5    2
     5     5     6    1
     6     6     7   ar
     7     7     8   ar
     8     8     9   ar
     9     9    10   ar
    10    10    11   ar
    11    11     6   ar
    12    11    12    1
    13    12    13    2
    14    13    14    1
    15    14    15   ar
    16    15    16   ar
    17    16    17   ar
    18    17    18   ar
    19    18    19   ar
    20    19    14   ar
    21    19    20    1
    22    20     4    1
    23    20    12    1
    24     2    21    1
    25    21    22    2
    26    22    23    1
    27    23    24    2
    28    24    25    1
    29    25    21    1
    30    25    26    1
    31    26    27   ar
    32    27    28   ar
    33    28    29   ar
    34    29    30   ar
    35    30    31   ar
    36    31    26   ar
    37     2    32    1
    38     1    33    1
    39     1    34    1
    40     1    35    1
    41     7    36    1
    42     8    37    1
    43     9    38    1
    44    10    39    1
    45    15    40    1
    46    16    41    1
    47    17    42    1
    48    18    43    1
    49    27    44    1
    50    28    45    1
    51    29    46    1
    52    30    47    1
    53    31    48    1
