@<TRIPOS>MOLECULE
*****
 48 53 0 0 0
SMALL
USER_CHARGES

@<TRIPOS>ATOM
      1 C1          1.8776    0.1224    0.1224 C.3     1  LIG1        0.0000
      2 C2          1.0000    1.0000    1.0000 C.3     1  LIG1        0.0000
      3 S3         -0.0450    2.0450   -0.0450 S.3     1  LIG1        0.0000
      4 C4          1.1015    2.7385   -1.1556 C.2     1  LIG1        0.0000
      5 N5          1.6564    3.8820   -0.7887 N.2     1  LIG1        0.0000
      6 C6          2.5771    4.5314   -1.5714 C.ar    1  LIG1        0.0000
      7 C7          3.1707    5.7351   -1.2006 C.ar    1  LIG1        0.0000
      8 C8          4.1001    6.3688   -2.0191 C.ar    1  LIG1        0.0000
      9 C9          4.4488    5.7904   -3.2350 C.ar    1  LIG1        0.0000
     10 C10         3.8584    4.5877   -3.6082 C.ar    1  LIG1        0.0000
     11 C11         2.9280    3.9569   -2.7878 C.ar    1  LIG1        0.0000
     12 C12         2.3111    2.7281   -3.1432 C.2     1  LIG1        0.0000
     13 N13         2.4784    1.9944   -4.2222 N.2     1  LIG1        0.0000
     14 C14         1.6741    0.8952   -4.1249 C.ar    1  LIG1        0.0000
     15 C15         1.5191   -0.1643   -5.0136 C.ar    1  LIG1        0.0000
     16 C16         0.6485   -1.2097   -4.7264 C.ar    1  LIG1        0.0000
     17 C17        -0.0662   -1.1802   -3.5338 C.ar    1  LIG1        0.0000
     18 C18         0.1110   -0.1079   -2.6652 C.ar    1  LIG1        0.0000
     19 C19         0.9777    0.9497   -2.9382 C.ar    1  LIG1        0.0000
     20 N20         1.4021    2.1138   -2.3446 N.pl3   1  LIG1        0.0000
     21 C21         1.8786    1.8786    1.8786 C.2     1  LIG1        0.0000
     22 N22         2.7596    2.7596    1.4634 N.2     1  LIG1        0.0000
     23 N23         3.3069    3.3110    2.5229 N.2     1  LIG1        0.0000
     24 N24         2.7937    2.7985    3.5608 N.2     1  LIG1        0.0000
     25 N25         1.8970    1.8992    3.2354 N.pl3   1  LIG1        0.0000
     26 C26         1.1253    1.1211    4.1071 C.ar    1  LIG1        0.0000
     27 C27         1.7045    0.5976    5.2583 C.ar    1  LIG1        0.0000
     28 C28         0.9307   -0.1748    6.1181 C.ar    1  LIG1        0.0000
     29 C29        -0.4077   -0.4162    5.8231 C.ar    1  LIG1        0.0000
     30 C30        -0.9788    0.1116    4.6697 C.ar    1  LIG1        0.0000
     31 C31        -0.2116    0.8846    3.8040 C.ar    1  LIG1        0.0000
     32 H           0.4226    0.4226    1.5774 H       1  LIG1        0.0000
     33 H           2.4549   -0.4549    0.6998 H       1  LIG1        0.0000
     34 H           1.3002   -0.4549   -0.4549 H       1  LIG1        0.0000
     35 H           2.4549    0.6998   -0.4549 H       1  LIG1        0.0000
     36 H           2.9235    6.1533   -0.3265 H       1  LIG1        0.0000
     37 H           4.5143    7.2336   -1.7354 H       1  LIG1        0.0000
     38 H           5.1159    6.2340   -3.8336 H       1  LIG1        0.0000
     39 H           4.1068    4.1688   -4.4816 H       1  LIG1        0.0000
     40 H           2.0393   -0.1740   -5.8676 H       1  LIG1        0.0000
     41 H           0.5380   -1.9700   -5.3666 H       1  LIG1        0.0000
     42 H          -0.6989   -1.9196   -3.3036 H       1  LIG1        0.0000
     43 H          -0.4050   -0.0952   -1.8087 H       1  LIG1        0.0000
     44 H           2.6667    0.7745    5.4655 H       1  LIG1        0.0000
     45 H           1.3362   -0.5566    6.9486 H       1  LIG1        0.0000
     46 H          -0.9615   -0.9719    6.4432 H       1  LIG1        0.0000
     47 H          -1.9411   -0.0647    4.4627 H       1  LIG1        0.0000
     48 H          -0.6167    1.2659    2.9730 H       1  LIG1        0.0000
@<TRIPOS>BOND
     1     1     2    1
     2     2     3    1
     3     3     4    1
     4     4     5    2
     5     5     6    1
     6     6     7   ar
     7     7     8   ar
     8     8     9   ar
     9     9    10   ar
    10    10    11   ar
    11    11     6   ar
    12    11    12    1
    13    12    13    2
    14    13    14    1
    15    14    15   ar
    16    15    16   ar
    17    16    17   ar
    18    17    18   ar
    19    18    19   ar
    20    19    14   ar
    21    19    20    1
    22    20     4    1
    23    20    12    1
    24     2    21    1
    25    21    22    2
    26    22    23    1
    27    23    24    2
    28    24    25    1
    29    25    21    1
    30    25    26    1
    31    26    27   ar
    32    27    28   ar
    33    28    29   ar
    34    29    30   ar
    35    30    31   ar
    36    31    26   ar
    37     2    32    1
    38     1    33    1
    39     1    34    1
    40     1    35    1
    41     7    36    1
    42     8    37    1
    43     9    38    1
    44    10    39    1
    45    15    40    1
    46    16    41    1
    47    17    42    1
    48    18    43    1
    49    27    44    1
    50    28    45    1
    51    29    46    1
    52    30    47    1
    53    31    48    1
