@<TRIPOS>MOLECULE
*****
 48 53 0 0 0
SMALL
USER_CHARGES

@<TRIPOS>ATOM
      1 C1          1.8776    0.1224    0.1224 C.3     1  LIG1        0.0000
      2 C2          1.0000    1.0000    1.0000 C.3     1  LIG1        0.0000
      3 S3         -0.0450    2.0450   -0.0450 S.3     1  LIG1        0.0000
      4 C4         -0.9576    0.8774   -0.9576 C.2     1  LIG1        0.0000
      5 N5         -0.4271    0.4835   -2.1037 N.2     1  LIG1        0.0000
      6 C6         -1.0431   -0.4340   -2.9166 C.ar    1  LIG1        0.0000
      7 C7         -0.4989   -0.8595   -4.1255 C.ar    1  LIG1        0.0000
      8 C8         -1.1510   -1.7906   -4.9274 C.ar    1  LIG1        0.0000
      9 C9         -2.3729   -2.3125   -4.5162 C.ar    1  LIG1        0.0000
     10 C10        -2.9190   -1.8902   -3.3088 C.ar    1  LIG1        0.0000
     11 C11        -2.2649   -0.9577   -2.5094 C.ar    1  LIG1        0.0000
     12 C12        -2.7987   -0.5102   -1.2718 C.2     1  LIG1        0.0000
     13 N13        -3.9190   -0.8558   -0.6751 N.2     1  LIG1        0.0000
     14 C14        -4.0120   -0.1662    0.4998 C.ar    1  LIG1        0.0000
     15 C15        -5.0088   -0.2090    1.4698 C.ar    1  LIG1        0.0000
     16 C16        -4.9157    0.5702    2.6177 C.ar    1  LIG1        0.0000
     17 C17        -3.8077    1.3942    2.7821 C.ar    1  LIG1        0.0000
     18 C18        -2.8271    1.4144    1.7953 C.ar    1  LIG1        0.0000
     19 C19        -2.9054    0.6419    0.6371 C.ar    1  LIG1        0.0000
     20 N20        -2.1624    0.4009   -0.4930 N.pl3   1  LIG1        0.0000
     21 C21         1.8786    1.8786    1.8786 C.2     1  LIG1        0.0000
     22 N22         2.7596    2.7596    1.4634 N.2     1  LIG1        0.0000
     23 N23         3.3069    3.3110    2.5229 N.2     1  LIG1        0.0000
     24 N24         2.7937    2.7985    3.5608 N.2     1  LIG1        0.0000
     25 N25         1.8970    1.8992    3.2354 N.pl3   1  LIG1        0.0000
     26 C26         1.1253    1.1211    4.1071 C.ar    1  LIG1        0.0000
     27 C27         1.7045    0.5976    5.2583 C.ar    1  LIG1        0.0000
     28 C28         0.9307   -0.1748    6.1181 C.ar    1  LIG1        0.0000
     29 C29        -0.4077   -0.4162    5.8231 C.ar    1  LIG1        0.0000
     30 C30        -0.9788    0.1116    4.6697 C.ar    1  LIG1        0.0000
     31 C31        -0.2116    0.8846    3.8040 C.ar    1  LIG1        0.0000
     32 H           0.4226    0.4226    1.5774 H       1  LIG1        0.0000
     33 H           2.4549   -0.4549    0.6998 H       1  LIG1        0.0000
     34 H           1.3002   -0.4549   -0.4549 H       1  LIG1        0.0000
     35 H           2.4549    0.6998   -0.4549 H       1  LIG1        0.0000
     36 H           0.3800   -0.4876   -4.4239 H       1  LIG1        0.0000
     37 H          -0.7442   -2.0826   -5.7931 H       1  LIG1        0.0000
     38 H          -2.8529   -2.9831   -5.0818 H       1  LIG1        0.0000
     39 H          -3.7972   -2.2634   -3.0098 H       1  LIG1        0.0000
     40 H          -5.8003   -0.8062    1.3399 H       1  LIG1        0.0000
     41 H          -5.6335    0.5384    3.3133 H       1  LIG1        0.0000
     42 H          -3.7169    1.9645    3.5985 H       1  LIG1        0.0000
     43 H          -2.0325    2.0081    1.9220 H       1  LIG1        0.0000
     44 H           2.6667    0.7745    5.4655 H       1  LIG1        0.0000
     45 H           1.3362   -0.5566    6.9486 H       1  LIG1        0.0000
     46 H          -0.9615   -0.9719    6.4432 H       1  LIG1        0.0000
     47 H          -1.9411   -0.0647    4.4627 H       1  LIG1        0.0000
     48 H          -0.6167    1.2659    2.9730 H       1  LIG1        0.0000
@<TRIPOS>BOND
     1     1     2    1
     2     2     3    1
     3     3     4    1
     4     4     5    2
     5     5     6    1
     6     6     7   ar
     7     7     8   ar
     8     8     9   ar
     9     9    10   ar
    10    10    11   ar
    11    11     6   ar
    12    11    12    1
    13    12    13    2
    14    13    14    1
    15    14    15   ar
    16    15    16   ar
    17    16    17   ar
    18    17    18   ar
    19    18    19   ar
    20    19    14   ar
    21    19    20    1
    22    20     4    1
    23    20    12    1
    24     2    21    1
    25    21    22    2
    26    22    23    1
    27    23    24    2
    28    24    25    1
    29    25    21    1
    30    25    26    1
    31    26    27   ar
    32    27    28   ar
    33    28    29   ar
    34    29    30   ar
    35    30    31   ar
    36    31    26   ar
    37     2    32    1
    38     1    33    1
    39     1    34    1
    40     1    35    1
    41     7    36    1
    42     8    37    1
    43     9    38    1
    44    10    39    1
    45    15    40    1
    46    16    41    1
    47    17    42    1
    48    18    43    1
    49    27    44    1
    50    28    45    1
    51    29    46    1
    52    30    47    1
    53    31    48    1
