@<TRIPOS>MOLECULE

  25   26
SMALL
USER_CHARGES
@<TRIPOS>ATOM
   1 C1           1.2925     1.2925    -0.4626 C.3          1    LIG   0.0000
   2 C2           1.0000     1.0000     1.0000 C.3          1    LIG   0.0000
   3 O3          -0.3664     1.2733     1.2733 O.3          1    LIG   0.0000
   4 C4           1.8776     1.8776     1.8776 C.3          1    LIG   0.0000
   5 N5           3.2924     1.5946     1.5946 N.pl3        1    LIG   0.0000
   6 C6           3.9120     2.3179     0.6237 C.2          1    LIG   0.0000
   7 O7           3.4359     3.2014    -0.0675 O.2          1    LIG   0.0000
   8 S8           5.5201     1.7744     0.5304 S.3          1    LIG   0.0000
   9 C9           5.3683     0.6101     1.7564 C.ar         1    LIG   0.0000
  10 C10          6.4098    -0.2035     2.1616 C.ar         1    LIG   0.0000
  11 F11          7.6173    -0.1248     1.6071 F            1    LIG   0.0000
  12 C12          6.0997    -1.0940     3.1744 C.ar         1    LIG   0.0000
  13 C13          4.8156    -1.1251     3.7104 C.ar         1    LIG   0.0000
  14 C14          3.8263    -0.2668     3.2404 C.ar         1    LIG   0.0000
  15 C15          4.0742     0.6521     2.2244 C.ar         1    LIG   0.0000
  16 H            1.1925     0.0377     1.1925 H            1    LIG   0.0000
  17 H            2.2548     1.1001    -0.6551 H            1    LIG   0.0000
  18 H            0.7152     0.7152    -1.0400 H            1    LIG   0.0000
  19 H            1.1001     2.2548    -0.6551 H            1    LIG   0.0000
  20 H           -0.9437     0.6959     0.6959 H            1    LIG   0.0000
  21 H            1.6851     2.8398     1.6851 H            1    LIG   0.0000
  22 H            1.6851     1.6851     2.8398 H            1    LIG   0.0000
  23 H            6.8002    -1.7171     3.5221 H            1    LIG   0.0000
  24 H            4.6014    -1.7721     4.4422 H            1    LIG   0.0000
  25 H            2.9122    -0.3113     3.6435 H            1    LIG   0.0000
@<TRIPOS>BOND
   1        1        2 1
   2        2        3 1
   3        2        4 1
   4        4        5 1
   5        5        6 1
   6        6        7 2
   7        6        8 1
   8        8        9 1
   9        9       10 ar
  10       10       11 1
  11       10       12 ar
  12       12       13 ar
  13       13       14 ar
  14       14       15 ar
  15       15        9 ar
  16       15        5 1
  17        2       16 1
  18        1       17 1
  19        1       18 1
  20        1       19 1
  21        3       20 1
  22        4       21 1
  23        4       22 1
  24       12       23 1
  25       13       24 1
  26       14       25 1

@<TRIPOS>MOLECULE

  25   26
SMALL
USER_CHARGES
@<TRIPOS>ATOM
   1 C1           1.2925     1.2925    -0.4626 C.3          1    LIG   0.0000
   2 C2           1.0000     1.0000     1.0000 C.3          1    LIG   0.0000
   3 O3          -0.3664     1.2733     1.2733 O.3          1    LIG   0.0000
   4 C4           1.8776     1.8776     1.8776 C.3          1    LIG   0.0000
   5 N5           3.2924     1.5946     1.5946 N.pl3        1    LIG   0.0000
   6 C6           4.0235     2.5455     0.9536 C.2          1    LIG   0.0000
   7 O7           3.6510     3.6404     0.5692 O.2          1    LIG   0.0000
   8 S8           5.6019     1.9403     0.7735 S.3          1    LIG   0.0000
   9 C9           5.2927     0.4545     1.5342 C.ar         1    LIG   0.0000
  10 C10          6.2540    -0.5244     1.7033 C.ar         1    LIG   0.0000
  11 F11          7.5031    -0.3620     1.2730 F            1    LIG   0.0000
  12 C12          5.8185    -1.6704     2.3452 C.ar         1    LIG   0.0000
  13 C13          4.4973    -1.7760     2.7696 C.ar         1    LIG   0.0000
  14 C14          3.5955    -0.7378     2.5572 C.ar         1    LIG   0.0000
  15 C15          3.9707     0.4407     1.9183 C.ar         1    LIG   0.0000
  16 H            1.1925     0.0377     1.1925 H            1    LIG   0.0000
  17 H            2.2548     1.1001    -0.6551 H            1    LIG   0.0000
  18 H            0.7152     0.7152    -1.0400 H            1    LIG   0.0000
  19 H            1.1001     2.2548    -0.6551 H            1    LIG   0.0000
  20 H           -0.9437     0.6959     0.6959 H            1    LIG   0.0000
  21 H            1.6851     2.8398     1.6851 H            1    LIG   0.0000
  22 H            1.6851     1.6851     2.8398 H            1    LIG   0.0000
  23 H            6.4552    -2.4249     2.5046 H            1    LIG   0.0000
  24 H            4.1923    -2.6082     3.2329 H            1    LIG   0.0000
  25 H            2.6520    -0.8411     2.8722 H            1    LIG   0.0000
@<TRIPOS>BOND
   1        1        2 1
   2        2        3 1
   3        2        4 1
   4        4        5 1
   5        5        6 1
   6        6        7 2
   7        6        8 1
   8        8        9 1
   9        9       10 ar
  10       10       11 1
  11       10       12 ar
  12       12       13 ar
  13       13       14 ar
  14       14       15 ar
  15       15        9 ar
  16       15        5 1
  17        2       16 1
  18        1       17 1
  19        1       18 1
  20        1       19 1
  21        3       20 1
  22        4       21 1
  23        4       22 1
  24       12       23 1
  25       13       24 1
  26       14       25 1

@<TRIPOS>MOLECULE

  25   26
SMALL
USER_CHARGES
@<TRIPOS>ATOM
   1 C1           1.2925     1.2925    -0.4626 C.3          1    LIG   0.0000
   2 C2           1.0000     1.0000     1.0000 C.3          1    LIG   0.0000
   3 O3          -0.3664     1.2733     1.2733 O.3          1    LIG   0.0000
   4 C4           1.8776     1.8776     1.8776 C.3          1    LIG   0.0000
   5 N5           3.2924     1.5946     1.5946 N.pl3        1    LIG   0.0000
   6 C6           3.9119     0.6235     2.3177 C.2          1    LIG   0.0000
   7 O7           3.4351    -0.0695     3.1995 O.2          1    LIG   0.0000
   8 S8           5.5176     0.5243     1.7682 S.3          1    LIG   0.0000
   9 C9           5.3654     1.7494     0.6030 C.ar         1    LIG   0.0000
  10 C10          6.4039     2.1469    -0.2182 C.ar         1    LIG   0.0000
  11 F11          7.6088     1.5857    -0.1461 F            1    LIG   0.0000
  12 C12          6.0945     3.1614    -1.1070 C.ar         1    LIG   0.0000
  13 C13          4.8136     3.7054    -1.1301 C.ar         1    LIG   0.0000
  14 C14          3.8271     3.2423    -0.2649 C.ar         1    LIG   0.0000
  15 C15          4.0742     2.2244     0.6521 C.ar         1    LIG   0.0000
  16 H            1.1925     0.0377     1.1925 H            1    LIG   0.0000
  17 H            2.2548     1.1001    -0.6551 H            1    LIG   0.0000
  18 H            0.7152     0.7152    -1.0400 H            1    LIG   0.0000
  19 H            1.1001     2.2548    -0.6551 H            1    LIG   0.0000
  20 H           -0.9437     0.6959     0.6959 H            1    LIG   0.0000
  21 H            1.6851     2.8398     1.6851 H            1    LIG   0.0000
  22 H            1.6851     1.6851     2.8398 H            1    LIG   0.0000
  23 H            6.7932     3.5046    -1.7346 H            1    LIG   0.0000
  24 H            4.5997     4.4380    -1.7763 H            1    LIG   0.0000
  25 H            2.9156     3.6519    -0.3029 H            1    LIG   0.0000
@<TRIPOS>BOND
   1        1        2 1
   2        2        3 1
   3        2        4 1
   4        4        5 1
   5        5        6 1
   6        6        7 2
   7        6        8 1
   8        8        9 1
   9        9       10 ar
  10       10       11 1
  11       10       12 ar
  12       12       13 ar
  13       13       14 ar
  14       14       15 ar
  15       15        9 ar
  16       15        5 1
  17        2       16 1
  18        1       17 1
  19        1       18 1
  20        1       19 1
  21        3       20 1
  22        4       21 1
  23        4       22 1
  24       12       23 1
  25       13       24 1
  26       14       25 1

@<TRIPOS>MOLECULE

  25   26
SMALL
USER_CHARGES
@<TRIPOS>ATOM
   1 C1           1.2925     1.2925    -0.4626 C.3          1    LIG   0.0000
   2 C2           1.0000     1.0000     1.0000 C.3          1    LIG   0.0000
   3 O3          -0.3664     1.2733     1.2733 O.3          1    LIG   0.0000
   4 C4           1.8776     1.8776     1.8776 C.3          1    LIG   0.0000
   5 N5           3.2924     1.5946     1.5946 N.pl3        1    LIG   0.0000
   6 C6           3.8004     0.3959     1.9878 C.2          1    LIG   0.0000
   7 O7           3.2200    -0.5084     2.5627 O.2          1    LIG   0.0000
   8 S8           5.4358     0.3584     1.5251 S.3          1    LIG   0.0000
   9 C9           5.4410     1.9049     0.8252 C.ar         1    LIG   0.0000
  10 C10          6.5598     2.4678     0.2402 C.ar         1    LIG   0.0000
  11 F11          7.7230     1.8229     0.1879 F            1    LIG   0.0000
  12 C12          6.3756     3.7377    -0.2778 C.ar         1    LIG   0.0000
  13 C13          5.1320     4.3564    -0.1893 C.ar         1    LIG   0.0000
  14 C14          4.0579     3.7133     0.4182 C.ar         1    LIG   0.0000
  15 C15          4.1777     2.4357     0.9582 C.ar         1    LIG   0.0000
  16 H            1.1925     0.0377     1.1925 H            1    LIG   0.0000
  17 H            2.2548     1.1001    -0.6551 H            1    LIG   0.0000
  18 H            0.7152     0.7152    -1.0400 H            1    LIG   0.0000
  19 H            1.1001     2.2548    -0.6551 H            1    LIG   0.0000
  20 H           -0.9437     0.6959     0.6959 H            1    LIG   0.0000
  21 H            1.6851     2.8398     1.6851 H            1    LIG   0.0000
  22 H            1.6851     1.6851     2.8398 H            1    LIG   0.0000
  23 H            7.1383     4.2124    -0.7171 H            1    LIG   0.0000
  24 H            5.0088     5.2741    -0.5669 H            1    LIG   0.0000
  25 H            3.1758     4.1817     0.4684 H            1    LIG   0.0000
@<TRIPOS>BOND
   1        1        2 1
   2        2        3 1
   3        2        4 1
   4        4        5 1
   5        5        6 1
   6        6        7 2
   7        6        8 1
   8        8        9 1
   9        9       10 ar
  10       10       11 1
  11       10       12 ar
  12       12       13 ar
  13       13       14 ar
  14       14       15 ar
  15       15        9 ar
  16       15        5 1
  17        2       16 1
  18        1       17 1
  19        1       18 1
  20        1       19 1
  21        3       20 1
  22        4       21 1
  23        4       22 1
  24       12       23 1
  25       13       24 1
  26       14       25 1

@<TRIPOS>MOLECULE

  25   26
SMALL
USER_CHARGES
@<TRIPOS>ATOM
   1 C1           1.2925     1.2925    -0.4626 C.3          1    LIG   0.0000
   2 C2           1.0000     1.0000     1.0000 C.3          1    LIG   0.0000
   3 O3          -0.3664     1.2733     1.2733 O.3          1    LIG   0.0000
   4 C4           1.8776     1.8776     1.8776 C.3          1    LIG   0.0000
   5 N5           3.2242     1.9640     1.2935 N.pl3        1    LIG   0.0000
   6 C6           3.7381     3.1974     1.0401 C.2          1    LIG   0.0000
   7 O7           3.2147     4.2797     1.2400 O.2          1    LIG   0.0000
   8 S8           5.2893     2.9779     0.3801 S.3          1    LIG   0.0000
   9 C9           5.2518     1.2819     0.4403 C.ar         1    LIG   0.0000
  10 C10          6.2984     0.4855     0.0145 C.ar         1    LIG   0.0000
  11 F11          7.4200     1.0061    -0.4782 F            1    LIG   0.0000
  12 C12          6.0881    -0.8766     0.1387 C.ar         1    LIG   0.0000
  13 C13          4.8906    -1.3553     0.6620 C.ar         1    LIG   0.0000
  14 C14          3.8889    -0.4784     1.0669 C.ar         1    LIG   0.0000
  15 C15          4.0385     0.9022     0.9686 C.ar         1    LIG   0.0000
  16 H            1.1925     0.0377     1.1925 H            1    LIG   0.0000
  17 H            2.2548     1.1001    -0.6551 H            1    LIG   0.0000
  18 H            0.7152     0.7152    -1.0400 H            1    LIG   0.0000
  19 H            1.1001     2.2548    -0.6551 H            1    LIG   0.0000
  20 H           -0.9437     0.6959     0.6959 H            1    LIG   0.0000
  21 H            1.4803     2.7934     1.9363 H            1    LIG   0.0000
  22 H            1.9363     1.4803     2.7934 H            1    LIG   0.0000
  23 H            6.7988    -1.5189    -0.1484 H            1    LIG   0.0000
  24 H            4.7483    -2.3414     0.7480 H            1    LIG   0.0000
  25 H            3.0383    -0.8501     1.4388 H            1    LIG   0.0000
@<TRIPOS>BOND
   1        1        2 1
   2        2        3 1
   3        2        4 1
   4        4        5 1
   5        5        6 1
   6        6        7 2
   7        6        8 1
   8        8        9 1
   9        9       10 ar
  10       10       11 1
  11       10       12 ar
  12       12       13 ar
  13       13       14 ar
  14       14       15 ar
  15       15        9 ar
  16       15        5 1
  17        2       16 1
  18        1       17 1
  19        1       18 1
  20        1       19 1
  21        3       20 1
  22        4       21 1
  23        4       22 1
  24       12       23 1
  25       13       24 1
  26       14       25 1

@<TRIPOS>MOLECULE

  25   26
SMALL
USER_CHARGES
@<TRIPOS>ATOM
   1 C1           1.2925     1.2925    -0.4626 C.3          1    LIG   0.0000
   2 C2           1.0000     1.0000     1.0000 C.3          1    LIG   0.0000
   3 O3          -0.3664     1.2733     1.2733 O.3          1    LIG   0.0000
   4 C4           1.8776     1.8776     1.8776 C.3          1    LIG   0.0000
   5 N5           3.2242     1.9640     1.2935 N.pl3        1    LIG   0.0000
   6 C6           3.8895     0.8063     1.0353 C.2          1    LIG   0.0000
   7 O7           3.5060    -0.3342     1.2288 O.2          1    LIG   0.0000
   8 S8           5.3970     1.2220     0.3685 S.3          1    LIG   0.0000
   9 C9           5.1452     2.8996     0.4339 C.ar         1    LIG   0.0000
  10 C10          6.0783     3.8230     0.0009 C.ar         1    LIG   0.0000
  11 F11          7.2527     3.4497    -0.5023 F            1    LIG   0.0000
  12 C12          5.6989     5.1472     0.1325 C.ar         1    LIG   0.0000
  13 C13          4.4552     5.4693     0.6681 C.ar         1    LIG   0.0000
  14 C14          3.5764     4.4717     1.0789 C.ar         1    LIG   0.0000
  15 C15          3.8979     3.1213     0.9728 C.ar         1    LIG   0.0000
  16 H            1.1925     0.0377     1.1925 H            1    LIG   0.0000
  17 H            2.2548     1.1001    -0.6551 H            1    LIG   0.0000
  18 H            0.7152     0.7152    -1.0400 H            1    LIG   0.0000
  19 H            1.1001     2.2548    -0.6551 H            1    LIG   0.0000
  20 H           -0.9437     0.6959     0.6959 H            1    LIG   0.0000
  21 H            1.4803     2.7934     1.9363 H            1    LIG   0.0000
  22 H            1.9363     1.4803     2.7934 H            1    LIG   0.0000
  23 H            6.3200     5.8750    -0.1581 H            1    LIG   0.0000
  24 H            4.1901     6.4292     0.7589 H            1    LIG   0.0000
  25 H            2.6896     4.7319     1.4607 H            1    LIG   0.0000
@<TRIPOS>BOND
   1        1        2 1
   2        2        3 1
   3        2        4 1
   4        4        5 1
   5        5        6 1
   6        6        7 2
   7        6        8 1
   8        8        9 1
   9        9       10 ar
  10       10       11 1
  11       10       12 ar
  12       12       13 ar
  13       13       14 ar
  14       14       15 ar
  15       15        9 ar
  16       15        5 1
  17        2       16 1
  18        1       17 1
  19        1       18 1
  20        1       19 1
  21        3       20 1
  22        4       21 1
  23        4       22 1
  24       12       23 1
  25       13       24 1
  26       14       25 1

@<TRIPOS>MOLECULE

  25   26
SMALL
USER_CHARGES
@<TRIPOS>ATOM
   1 C1           1.2925     1.2925    -0.4626 C.3          1    LIG   0.0000
   2 C2           1.0000     1.0000     1.0000 C.3          1    LIG   0.0000
   3 O3          -0.3664     1.2733     1.2733 O.3          1    LIG   0.0000
   4 C4           1.8776     1.8776     1.8776 C.3          1    LIG   0.0000
   5 N5           3.2242     1.2935     1.9640 N.pl3        1    LIG   0.0000
   6 C6           3.3415     0.0054     2.3843 C.2          1    LIG   0.0000
   7 O7           2.4489    -0.7579     2.7096 O.2          1    LIG   0.0000
   8 S8           4.9960    -0.3851     2.3766 S.3          1    LIG   0.0000
   9 C9           5.5177     1.1339     1.8270 C.ar         1    LIG   0.0000
  10 C10          6.8469     1.4454     1.6099 C.ar         1    LIG   0.0000
  11 F11          7.8180     0.5601     1.8220 F            1    LIG   0.0000
  12 C12          7.0828     2.7334     1.1624 C.ar         1    LIG   0.0000
  13 C13          6.0208     3.6103     0.9616 C.ar         1    LIG   0.0000
  14 C14          4.7106     3.2104     1.2060 C.ar         1    LIG   0.0000
  15 C15          4.4066     1.9288     1.6567 C.ar         1    LIG   0.0000
  16 H            1.1925     0.0377     1.1925 H            1    LIG   0.0000
  17 H            2.2548     1.1001    -0.6551 H            1    LIG   0.0000
  18 H            0.7152     0.7152    -1.0400 H            1    LIG   0.0000
  19 H            1.1001     2.2548    -0.6551 H            1    LIG   0.0000
  20 H           -0.9437     0.6959     0.6959 H            1    LIG   0.0000
  21 H            1.9363     2.7934     1.4803 H            1    LIG   0.0000
  22 H            1.4803     1.9363     2.7934 H            1    LIG   0.0000
  23 H            8.0191     3.0351     0.9828 H            1    LIG   0.0000
  24 H            6.2015     4.5390     0.6377 H            1    LIG   0.0000
  25 H            3.9670     3.8614     1.0537 H            1    LIG   0.0000
@<TRIPOS>BOND
   1        1        2 1
   2        2        3 1
   3        2        4 1
   4        4        5 1
   5        5        6 1
   6        6        7 2
   7        6        8 1
   8        8        9 1
   9        9       10 ar
  10       10       11 1
  11       10       12 ar
  12       12       13 ar
  13       13       14 ar
  14       14       15 ar
  15       15        9 ar
  16       15        5 1
  17        2       16 1
  18        1       17 1
  19        1       18 1
  20        1       19 1
  21        3       20 1
  22        4       21 1
  23        4       22 1
  24       12       23 1
  25       13       24 1
  26       14       25 1

