@<TRIPOS>MOLECULE
*****
 25 26 0 0 0
SMALL
USER_CHARGES

@<TRIPOS>ATOM
      1 C1          1.2925    1.2925   -0.4626 C.3     1  LIG1        0.0000
      2 C2          1.0000    1.0000    1.0000 C.3     1  LIG1        0.0000
      3 O3         -0.3664    1.2733    1.2733 O.3     1  LIG1        0.0000
      4 C4          1.8776    1.8776    1.8776 C.3     1  LIG1        0.0000
      5 N5          3.2242    1.2935    1.9640 N.am    1  LIG1        0.0000
      6 C6          3.3415    0.0054    2.3843 C.2     1  LIG1        0.0000
      7 O7          2.4489   -0.7579    2.7096 O.2     1  LIG1        0.0000
      8 S8          4.9960   -0.3851    2.3766 S.3     1  LIG1        0.0000
      9 C9          5.5177    1.1339    1.8270 C.3     1  LIG1        0.0000
     10 C10         6.8469    1.4454    1.6099 C.3     1  LIG1        0.0000
     11 F11         7.8180    0.5601    1.8220 F       1  LIG1        0.0000
     12 C12         7.0828    2.7334    1.1624 C.3     1  LIG1        0.0000
     13 C13         6.0208    3.6103    0.9616 C.3     1  LIG1        0.0000
     14 C14         4.7106    3.2104    1.2060 C.3     1  LIG1        0.0000
     15 C15         4.4066    1.9288    1.6567 C.3     1  LIG1        0.0000
     16 H           1.1925    0.0377    1.1925 H       1  LIG1        0.0000
     17 H           2.2548    1.1001   -0.6551 H       1  LIG1        0.0000
     18 H           0.7152    0.7152   -1.0400 H       1  LIG1        0.0000
     19 H           1.1001    2.2548   -0.6551 H       1  LIG1        0.0000
     20 H          -0.9437    0.6959    0.6959 H       1  LIG1        0.0000
     21 H           1.9363    2.7934    1.4803 H       1  LIG1        0.0000
     22 H           1.4803    1.9363    2.7934 H       1  LIG1        0.0000
     23 H           8.0191    3.0351    0.9828 H       1  LIG1        0.0000
     24 H           6.2015    4.5390    0.6377 H       1  LIG1        0.0000
     25 H           3.9670    3.8614    1.0537 H       1  LIG1        0.0000
@<TRIPOS>BOND
     1     1     2    1
     2     2     3    1
     3     2     4    1
     4     4     5    1
     5     5     6   am
     6     6     7    2
     7     6     8    1
     8     8     9    1
     9     9    10   ar
    10    10    11    1
    11    10    12   ar
    12    12    13   ar
    13    13    14   ar
    14    14    15   ar
    15    15     9   ar
    16    15     5    1
    17     2    16    1
    18     1    17    1
    19     1    18    1
    20     1    19    1
    21     3    20    1
    22     4    21    1
    23     4    22    1
    24    12    23    1
    25    13    24    1
    26    14    25    1
