@<TRIPOS>MOLECULE
*****
 25 26 0 0 0
SMALL
USER_CHARGES

@<TRIPOS>ATOM
      1 C1          1.2925    1.2925   -0.4626 C.3     1  LIG1        0.0000
      2 C2          1.0000    1.0000    1.0000 C.3     1  LIG1        0.0000
      3 O3         -0.3664    1.2733    1.2733 O.3     1  LIG1        0.0000
      4 C4          1.8776    1.8776    1.8776 C.3     1  LIG1        0.0000
      5 N5          3.2924    1.5946    1.5946 N.am    1  LIG1        0.0000
      6 C6          3.9119    0.6235    2.3177 C.2     1  LIG1        0.0000
      7 O7          3.4351   -0.0695    3.1995 O.2     1  LIG1        0.0000
      8 S8          5.5176    0.5243    1.7682 S.3     1  LIG1        0.0000
      9 C9          5.3654    1.7494    0.6030 C.3     1  LIG1        0.0000
     10 C10         6.4039    2.1469   -0.2182 C.3     1  LIG1        0.0000
     11 F11         7.6088    1.5857   -0.1461 F       1  LIG1        0.0000
     12 C12         6.0945    3.1614   -1.1070 C.3     1  LIG1        0.0000
     13 C13         4.8136    3.7054   -1.1301 C.3     1  LIG1        0.0000
     14 C14         3.8271    3.2423   -0.2649 C.3     1  LIG1        0.0000
     15 C15         4.0742    2.2244    0.6521 C.3     1  LIG1        0.0000
     16 H           1.1925    0.0377    1.1925 H       1  LIG1        0.0000
     17 H           2.2548    1.1001   -0.6551 H       1  LIG1        0.0000
     18 H           0.7152    0.7152   -1.0400 H       1  LIG1        0.0000
     19 H           1.1001    2.2548   -0.6551 H       1  LIG1        0.0000
     20 H          -0.9437    0.6959    0.6959 H       1  LIG1        0.0000
     21 H           1.6851    2.8398    1.6851 H       1  LIG1        0.0000
     22 H           1.6851    1.6851    2.8398 H       1  LIG1        0.0000
     23 H           6.7932    3.5046   -1.7346 H       1  LIG1        0.0000
     24 H           4.5997    4.4380   -1.7763 H       1  LIG1        0.0000
     25 H           2.9156    3.6519   -0.3029 H       1  LIG1        0.0000
@<TRIPOS>BOND
     1     1     2    1
     2     2     3    1
     3     2     4    1
     4     4     5    1
     5     5     6   am
     6     6     7    2
     7     6     8    1
     8     8     9    1
     9     9    10   ar
    10    10    11    1
    11    10    12   ar
    12    12    13   ar
    13    13    14   ar
    14    14    15   ar
    15    15     9   ar
    16    15     5    1
    17     2    16    1
    18     1    17    1
    19     1    18    1
    20     1    19    1
    21     3    20    1
    22     4    21    1
    23     4    22    1
    24    12    23    1
    25    13    24    1
    26    14    25    1
