@<TRIPOS>MOLECULE
*****
 25 26 0 0 0
SMALL
USER_CHARGES

@<TRIPOS>ATOM
      1 C1          1.2925    1.2925   -0.4626 C.3     1  LIG1        0.0000
      2 C2          1.0000    1.0000    1.0000 C.3     1  LIG1        0.0000
      3 O3         -0.3664    1.2733    1.2733 O.3     1  LIG1        0.0000
      4 C4          1.8776    1.8776    1.8776 C.3     1  LIG1        0.0000
      5 N5          3.2924    1.5946    1.5946 N.am    1  LIG1        0.0000
      6 C6          3.8004    0.3959    1.9878 C.2     1  LIG1        0.0000
      7 O7          3.2200   -0.5084    2.5627 O.2     1  LIG1        0.0000
      8 S8          5.4358    0.3584    1.5251 S.3     1  LIG1        0.0000
      9 C9          5.4410    1.9049    0.8252 C.3     1  LIG1        0.0000
     10 C10         6.5598    2.4678    0.2402 C.3     1  LIG1        0.0000
     11 F11         7.7230    1.8229    0.1879 F       1  LIG1        0.0000
     12 C12         6.3756    3.7377   -0.2778 C.3     1  LIG1        0.0000
     13 C13         5.1320    4.3564   -0.1893 C.3     1  LIG1        0.0000
     14 C14         4.0579    3.7133    0.4182 C.3     1  LIG1        0.0000
     15 C15         4.1777    2.4357    0.9582 C.3     1  LIG1        0.0000
     16 H           1.1925    0.0377    1.1925 H       1  LIG1        0.0000
     17 H           2.2548    1.1001   -0.6551 H       1  LIG1        0.0000
     18 H           0.7152    0.7152   -1.0400 H       1  LIG1        0.0000
     19 H           1.1001    2.2548   -0.6551 H       1  LIG1        0.0000
     20 H          -0.9437    0.6959    0.6959 H       1  LIG1        0.0000
     21 H           1.6851    2.8398    1.6851 H       1  LIG1        0.0000
     22 H           1.6851    1.6851    2.8398 H       1  LIG1        0.0000
     23 H           7.1383    4.2124   -0.7171 H       1  LIG1        0.0000
     24 H           5.0088    5.2741   -0.5669 H       1  LIG1        0.0000
     25 H           3.1758    4.1817    0.4684 H       1  LIG1        0.0000
@<TRIPOS>BOND
     1     1     2    1
     2     2     3    1
     3     2     4    1
     4     4     5    1
     5     5     6   am
     6     6     7    2
     7     6     8    1
     8     8     9    1
     9     9    10   ar
    10    10    11    1
    11    10    12   ar
    12    12    13   ar
    13    13    14   ar
    14    14    15   ar
    15    15     9   ar
    16    15     5    1
    17     2    16    1
    18     1    17    1
    19     1    18    1
    20     1    19    1
    21     3    20    1
    22     4    21    1
    23     4    22    1
    24    12    23    1
    25    13    24    1
    26    14    25    1
