@<TRIPOS>MOLECULE
*****
 25 26 0 0 0
SMALL
USER_CHARGES

@<TRIPOS>ATOM
      1 C1          1.2925    1.2925   -0.4626 C.3     1  LIG1        0.0000
      2 C2          1.0000    1.0000    1.0000 C.3     1  LIG1        0.0000
      3 O3         -0.3664    1.2733    1.2733 O.3     1  LIG1        0.0000
      4 C4          1.8776    1.8776    1.8776 C.3     1  LIG1        0.0000
      5 N5          3.2242    1.9640    1.2935 N.am    1  LIG1        0.0000
      6 C6          3.8895    0.8063    1.0353 C.2     1  LIG1        0.0000
      7 O7          3.5060   -0.3342    1.2288 O.2     1  LIG1        0.0000
      8 S8          5.3970    1.2220    0.3685 S.3     1  LIG1        0.0000
      9 C9          5.1452    2.8996    0.4339 C.3     1  LIG1        0.0000
     10 C10         6.0783    3.8230    0.0009 C.3     1  LIG1        0.0000
     11 F11         7.2527    3.4497   -0.5023 F       1  LIG1        0.0000
     12 C12         5.6989    5.1472    0.1325 C.3     1  LIG1        0.0000
     13 C13         4.4552    5.4693    0.6681 C.3     1  LIG1        0.0000
     14 C14         3.5764    4.4717    1.0789 C.3     1  LIG1        0.0000
     15 C15         3.8979    3.1213    0.9728 C.3     1  LIG1        0.0000
     16 H           1.1925    0.0377    1.1925 H       1  LIG1        0.0000
     17 H           2.2548    1.1001   -0.6551 H       1  LIG1        0.0000
     18 H           0.7152    0.7152   -1.0400 H       1  LIG1        0.0000
     19 H           1.1001    2.2548   -0.6551 H       1  LIG1        0.0000
     20 H          -0.9437    0.6959    0.6959 H       1  LIG1        0.0000
     21 H           1.4803    2.7934    1.9363 H       1  LIG1        0.0000
     22 H           1.9363    1.4803    2.7934 H       1  LIG1        0.0000
     23 H           6.3200    5.8750   -0.1581 H       1  LIG1        0.0000
     24 H           4.1901    6.4292    0.7589 H       1  LIG1        0.0000
     25 H           2.6896    4.7319    1.4607 H       1  LIG1        0.0000
@<TRIPOS>BOND
     1     1     2    1
     2     2     3    1
     3     2     4    1
     4     4     5    1
     5     5     6   am
     6     6     7    2
     7     6     8    1
     8     8     9    1
     9     9    10   ar
    10    10    11    1
    11    10    12   ar
    12    12    13   ar
    13    13    14   ar
    14    14    15   ar
    15    15     9   ar
    16    15     5    1
    17     2    16    1
    18     1    17    1
    19     1    18    1
    20     1    19    1
    21     3    20    1
    22     4    21    1
    23     4    22    1
    24    12    23    1
    25    13    24    1
    26    14    25    1
