@<TRIPOS>MOLECULE

  41   44
SMALL
USER_CHARGES
@<TRIPOS>ATOM
   1 C1          -1.0706    -0.0231     1.0022 C.3          1    LIG   0.0000
   2 O2           0.3450    -0.1345     1.0024 O.3          1    LIG   0.0000
   3 C3           1.0000     1.0000     1.0000 C.2          1    LIG   0.0000
   4 O4           0.4000     2.0392     0.9978 O.2          1    LIG   0.0000
   5 C5           2.4503     1.0000     1.0000 C.2          1    LIG   0.0000
   6 C6           3.0886    -0.2117     1.0024 C.2          1    LIG   0.0000
   7 C7           4.5080    -0.2217     1.0008 C.2          1    LIG   0.0000
   8 C8           5.1734    -1.5099     1.0053 C.ar         1    LIG   0.0000
   9 C9           4.4024    -2.6680     1.0095 C.ar         1    LIG   0.0000
  10 C10          5.0203    -3.9146     1.0142 C.ar         1    LIG   0.0000
  11 C11          6.4090    -3.9927     1.0150 C.ar         1    LIG   0.0000
  12 Cl12         7.1999    -5.5874     1.0213 Cl           1    LIG   0.0000
  13 C13          7.1880    -2.8402     1.0112 C.ar         1    LIG   0.0000
  14 C14          6.5613    -1.5983     1.0063 C.ar         1    LIG   0.0000
  15 Cl15         7.5698    -0.1311     1.0011 Cl           1    LIG   0.0000
  16 N16          5.1437     0.9439     0.9966 N.2          1    LIG   0.0000
  17 C17          4.5128     2.1704     0.9930 C.2          1    LIG   0.0000
  18 C18          4.8998     3.4848     0.9862 C.2          1    LIG   0.0000
  19 C19          6.1498     4.1656     0.9743 C.2          1    LIG   0.0000
  20 C20          7.4604     3.3943     0.9710 C.3          1    LIG   0.0000
  21 C21          6.2236     5.5359     0.9635 C.2          1    LIG   0.0000
  22 C22          5.0292     6.3058     0.9623 C.2          1    LIG   0.0000
  23 C23          5.1514     7.8238     0.9483 C.3          1    LIG   0.0000
  24 N24          3.8663     5.6672     0.9738 N.2          1    LIG   0.0000
  25 C25          3.7551     4.2945     0.9874 C.2          1    LIG   0.0000
  26 N26          2.7558     3.4309     0.9923 N.2          1    LIG   0.0000
  27 N27          3.1606     2.1741     0.9975 N.pl3        1    LIG   0.0000
  28 H           -1.4769    -0.9368     1.0041 H            1    LIG   0.0000
  29 H           -1.3659     0.4748     1.8176 H            1    LIG   0.0000
  30 H           -1.3659     0.4713     0.1846 H            1    LIG   0.0000
  31 H            2.5689    -1.0660     1.0053 H            1    LIG   0.0000
  32 H            3.4044    -2.6044     1.0091 H            1    LIG   0.0000
  33 H            4.4694    -4.7492     1.0169 H            1    LIG   0.0000
  34 H            8.1860    -2.9036     1.0119 H            1    LIG   0.0000
  35 H            8.2258     4.0377     0.9623 H            1    LIG   0.0000
  36 H            7.5135     2.8240     1.7907 H            1    LIG   0.0000
  37 H            7.5035     2.8139     0.1578 H            1    LIG   0.0000
  38 H            7.1142     5.9908     0.9566 H            1    LIG   0.0000
  39 H            6.1179     8.0804     0.9411 H            1    LIG   0.0000
  40 H            4.7041     8.1867     0.1308 H            1    LIG   0.0000
  41 H            4.7124     8.2011     1.7638 H            1    LIG   0.0000
@<TRIPOS>BOND
   1        1        2 1
   2        2        3 1
   3        3        4 2
   4        3        5 1
   5        5        6 2
   6        6        7 1
   7        7        8 1
   8        8        9 ar
   9        9       10 ar
  10       10       11 ar
  11       11       12 1
  12       11       13 ar
  13       13       14 ar
  14       14        8 ar
  15       14       15 1
  16        7       16 2
  17       16       17 1
  18       17       18 2
  19       18       19 1
  20       19       20 1
  21       19       21 2
  22       21       22 1
  23       22       23 1
  24       22       24 2
  25       24       25 1
  26       25       18 1
  27       25       26 2
  28       26       27 1
  29       27        5 1
  30       27       17 1
  31        1       28 1
  32        1       29 1
  33        1       30 1
  34        6       31 1
  35        9       32 1
  36       10       33 1
  37       13       34 1
  38       20       35 1
  39       20       36 1
  40       20       37 1
  41       21       38 1
  42       23       39 1
  43       23       40 1
  44       23       41 1

@<TRIPOS>MOLECULE

  41   44
SMALL
USER_CHARGES
@<TRIPOS>ATOM
   1 C1          -1.0706    -0.0231     1.0022 C.3          1    LIG   0.0000
   2 O2           0.3450    -0.1345     1.0024 O.3          1    LIG   0.0000
   3 C3           1.0000     1.0000     1.0000 C.2          1    LIG   0.0000
   4 O4           0.4000     2.0392     0.9978 O.2          1    LIG   0.0000
   5 C5           2.4503     1.0000     1.0000 C.2          1    LIG   0.0000
   6 C6           3.0886    -0.2117     1.0024 C.2          1    LIG   0.0000
   7 C7           4.5080    -0.2217     1.0008 C.2          1    LIG   0.0000
   8 C8           5.1734    -1.5099     1.0053 C.ar         1    LIG   0.0000
   9 C9           5.4831    -2.1140    -0.2091 C.ar         1    LIG   0.0000
  10 C10          6.1213    -3.3503    -0.2279 C.ar         1    LIG   0.0000
  11 C11          6.4452    -3.9742     0.9723 C.ar         1    LIG   0.0000
  12 Cl12         7.2614    -5.5559     0.9487 Cl           1    LIG   0.0000
  13 C13          6.1391    -3.3779     2.1913 C.ar         1    LIG   0.0000
  14 C14          5.5011    -2.1417     2.2001 C.ar         1    LIG   0.0000
  15 Cl15         5.1154    -1.3892     3.7668 Cl           1    LIG   0.0000
  16 N16          5.1437     0.9439     0.9966 N.2          1    LIG   0.0000
  17 C17          4.5128     2.1704     0.9930 C.2          1    LIG   0.0000
  18 C18          4.8998     3.4848     0.9862 C.2          1    LIG   0.0000
  19 C19          6.1498     4.1656     0.9743 C.2          1    LIG   0.0000
  20 C20          7.4604     3.3943     0.9710 C.3          1    LIG   0.0000
  21 C21          6.2236     5.5359     0.9635 C.2          1    LIG   0.0000
  22 C22          5.0292     6.3058     0.9623 C.2          1    LIG   0.0000
  23 C23          5.1514     7.8238     0.9483 C.3          1    LIG   0.0000
  24 N24          3.8663     5.6672     0.9738 N.2          1    LIG   0.0000
  25 C25          3.7551     4.2945     0.9874 C.2          1    LIG   0.0000
  26 N26          2.7558     3.4309     0.9923 N.2          1    LIG   0.0000
  27 N27          3.1606     2.1741     0.9975 N.pl3        1    LIG   0.0000
  28 H           -1.4769    -0.9368     1.0041 H            1    LIG   0.0000
  29 H           -1.3659     0.4748     1.8176 H            1    LIG   0.0000
  30 H           -1.3659     0.4713     0.1846 H            1    LIG   0.0000
  31 H            2.5689    -1.0660     1.0053 H            1    LIG   0.0000
  32 H            5.2472    -1.6599    -1.0682 H            1    LIG   0.0000
  33 H            6.3457    -3.7874    -1.0988 H            1    LIG   0.0000
  34 H            6.3747    -3.8321     3.0505 H            1    LIG   0.0000
  35 H            8.2258     4.0377     0.9623 H            1    LIG   0.0000
  36 H            7.5135     2.8240     1.7907 H            1    LIG   0.0000
  37 H            7.5035     2.8139     0.1578 H            1    LIG   0.0000
  38 H            7.1142     5.9908     0.9566 H            1    LIG   0.0000
  39 H            6.1179     8.0804     0.9411 H            1    LIG   0.0000
  40 H            4.7041     8.1867     0.1308 H            1    LIG   0.0000
  41 H            4.7124     8.2011     1.7638 H            1    LIG   0.0000
@<TRIPOS>BOND
   1        1        2 1
   2        2        3 1
   3        3        4 2
   4        3        5 1
   5        5        6 2
   6        6        7 1
   7        7        8 1
   8        8        9 ar
   9        9       10 ar
  10       10       11 ar
  11       11       12 1
  12       11       13 ar
  13       13       14 ar
  14       14        8 ar
  15       14       15 1
  16        7       16 2
  17       16       17 1
  18       17       18 2
  19       18       19 1
  20       19       20 1
  21       19       21 2
  22       21       22 1
  23       22       23 1
  24       22       24 2
  25       24       25 1
  26       25       18 1
  27       25       26 2
  28       26       27 1
  29       27        5 1
  30       27       17 1
  31        1       28 1
  32        1       29 1
  33        1       30 1
  34        6       31 1
  35        9       32 1
  36       10       33 1
  37       13       34 1
  38       20       35 1
  39       20       36 1
  40       20       37 1
  41       21       38 1
  42       23       39 1
  43       23       40 1
  44       23       41 1

@<TRIPOS>MOLECULE

  41   44
SMALL
USER_CHARGES
@<TRIPOS>ATOM
   1 C1          -1.0706    -0.0231     1.0022 C.3          1    LIG   0.0000
   2 O2           0.3450    -0.1345     1.0024 O.3          1    LIG   0.0000
   3 C3           1.0000     1.0000     1.0000 C.2          1    LIG   0.0000
   4 O4           0.4000     2.0392     0.9978 O.2          1    LIG   0.0000
   5 C5           2.4503     1.0000     1.0000 C.2          1    LIG   0.0000
   6 C6           3.0886    -0.2117     1.0024 C.2          1    LIG   0.0000
   7 C7           4.5080    -0.2217     1.0008 C.2          1    LIG   0.0000
   8 C8           5.1734    -1.5099     1.0053 C.ar         1    LIG   0.0000
   9 C9           5.4833    -2.1054     2.2239 C.ar         1    LIG   0.0000
  10 C10          6.1220    -3.3412     2.2514 C.ar         1    LIG   0.0000
  11 C11          6.4468    -3.9730     1.0556 C.ar         1    LIG   0.0000
  12 Cl12         7.2643    -5.5539     1.0903 Cl           1    LIG   0.0000
  13 C13          6.1412    -3.3851    -0.1676 C.ar         1    LIG   0.0000
  14 C14          5.5024    -2.1495    -0.1850 C.ar         1    LIG   0.0000
  15 Cl15         5.1164    -1.4080    -1.7570 Cl           1    LIG   0.0000
  16 N16          5.1437     0.9439     0.9966 N.2          1    LIG   0.0000
  17 C17          4.5128     2.1704     0.9930 C.2          1    LIG   0.0000
  18 C18          4.8998     3.4848     0.9862 C.2          1    LIG   0.0000
  19 C19          6.1498     4.1656     0.9743 C.2          1    LIG   0.0000
  20 C20          7.4604     3.3943     0.9710 C.3          1    LIG   0.0000
  21 C21          6.2236     5.5359     0.9635 C.2          1    LIG   0.0000
  22 C22          5.0292     6.3058     0.9623 C.2          1    LIG   0.0000
  23 C23          5.1514     7.8238     0.9483 C.3          1    LIG   0.0000
  24 N24          3.8663     5.6672     0.9738 N.2          1    LIG   0.0000
  25 C25          3.7551     4.2945     0.9874 C.2          1    LIG   0.0000
  26 N26          2.7558     3.4309     0.9923 N.2          1    LIG   0.0000
  27 N27          3.1606     2.1741     0.9975 N.pl3        1    LIG   0.0000
  28 H           -1.4769    -0.9368     1.0041 H            1    LIG   0.0000
  29 H           -1.3659     0.4748     1.8176 H            1    LIG   0.0000
  30 H           -1.3659     0.4713     0.1846 H            1    LIG   0.0000
  31 H            2.5689    -1.0660     1.0053 H            1    LIG   0.0000
  32 H            5.2471    -1.6453     3.0798 H            1    LIG   0.0000
  33 H            6.3462    -3.7724     3.1254 H            1    LIG   0.0000
  34 H            6.3778    -3.8448    -1.0235 H            1    LIG   0.0000
  35 H            8.2258     4.0377     0.9623 H            1    LIG   0.0000
  36 H            7.5135     2.8240     1.7907 H            1    LIG   0.0000
  37 H            7.5035     2.8139     0.1578 H            1    LIG   0.0000
  38 H            7.1142     5.9908     0.9566 H            1    LIG   0.0000
  39 H            6.1179     8.0804     0.9411 H            1    LIG   0.0000
  40 H            4.7041     8.1867     0.1308 H            1    LIG   0.0000
  41 H            4.7124     8.2011     1.7638 H            1    LIG   0.0000
@<TRIPOS>BOND
   1        1        2 1
   2        2        3 1
   3        3        4 2
   4        3        5 1
   5        5        6 2
   6        6        7 1
   7        7        8 1
   8        8        9 ar
   9        9       10 ar
  10       10       11 ar
  11       11       12 1
  12       11       13 ar
  13       13       14 ar
  14       14        8 ar
  15       14       15 1
  16        7       16 2
  17       16       17 1
  18       17       18 2
  19       18       19 1
  20       19       20 1
  21       19       21 2
  22       21       22 1
  23       22       23 1
  24       22       24 2
  25       24       25 1
  26       25       18 1
  27       25       26 2
  28       26       27 1
  29       27        5 1
  30       27       17 1
  31        1       28 1
  32        1       29 1
  33        1       30 1
  34        6       31 1
  35        9       32 1
  36       10       33 1
  37       13       34 1
  38       20       35 1
  39       20       36 1
  40       20       37 1
  41       21       38 1
  42       23       39 1
  43       23       40 1
  44       23       41 1

@<TRIPOS>MOLECULE

  41   44
SMALL
USER_CHARGES
@<TRIPOS>ATOM
   1 C1          -1.0706    -0.0231     1.0022 C.3          1    LIG   0.0000
   2 O2           0.3450    -0.1345     1.0024 O.3          1    LIG   0.0000
   3 C3           1.0000     1.0000     1.0000 C.2          1    LIG   0.0000
   4 O4           0.4000     2.0392     0.9978 O.2          1    LIG   0.0000
   5 C5           2.4503     1.0000     1.0000 C.2          1    LIG   0.0000
   6 C6           3.0886     0.3921    -0.0481 C.2          1    LIG   0.0000
   7 C7           4.5080     0.3884    -0.0577 C.2          1    LIG   0.0000
   8 C8           5.1734    -0.2595    -1.1710 C.ar         1    LIG   0.0000
   9 C9           6.0236     0.4897    -1.9781 C.ar         1    LIG   0.0000
  10 C10          6.6721    -0.1120    -3.0521 C.ar         1    LIG   0.0000
  11 C11          6.4638    -1.4627    -3.3107 C.ar         1    LIG   0.0000
  12 Cl12         7.2930    -2.2328    -4.6848 Cl           1    LIG   0.0000
  13 C13          5.6153    -2.2197    -2.5093 C.ar         1    LIG   0.0000
  14 C14          4.9714    -1.6094    -1.4378 C.ar         1    LIG   0.0000
  15 Cl15         3.8885    -2.5894    -0.4197 Cl           1    LIG   0.0000
  16 N16          5.1437     0.9749     0.9498 N.2          1    LIG   0.0000
  17 C17          4.5128     1.5912     2.0101 C.2          1    LIG   0.0000
  18 C18          4.8998     2.2544     3.1450 C.2          1    LIG   0.0000
  19 C19          6.1498     2.6051     3.7287 C.2          1    LIG   0.0000
  20 C20          7.4604     2.2222     3.0590 C.3          1    LIG   0.0000
  21 C21          6.2236     3.2996     4.9100 C.2          1    LIG   0.0000
  22 C22          5.0292     3.6856     5.5761 C.2          1    LIG   0.0000
  23 C23          5.1514     4.4567     6.8838 C.3          1    LIG   0.0000
  24 N24          3.8663     3.3563     5.0288 N.2          1    LIG   0.0000
  25 C25          3.7551     2.6582     3.8469 C.2          1    LIG   0.0000
  26 N26          2.7558     2.2222     3.1014 N.2          1    LIG   0.0000
  27 N27          3.1606     1.5892     2.0155 N.pl3        1    LIG   0.0000
  28 H           -1.4769    -0.9368     1.0041 H            1    LIG   0.0000
  29 H           -1.3659     0.4748     1.8176 H            1    LIG   0.0000
  30 H           -1.3659     0.4713     0.1846 H            1    LIG   0.0000
  31 H            2.5689    -0.0376    -0.7865 H            1    LIG   0.0000
  32 H            6.1685     1.4604    -1.7865 H            1    LIG   0.0000
  33 H            7.2840     0.4233    -3.6343 H            1    LIG   0.0000
  34 H            5.4700    -3.1903    -2.7011 H            1    LIG   0.0000
  35 H            8.2258     2.5514     3.6119 H            1    LIG   0.0000
  36 H            7.5135     1.2272     2.9750 H            1    LIG   0.0000
  37 H            7.5035     2.6363     2.1498 H            1    LIG   0.0000
  38 H            7.1142     3.5330     5.3004 H            1    LIG   0.0000
  39 H            6.1179     4.5912     7.1024 H            1    LIG   0.0000
  40 H            4.7041     5.3461     6.7893 H            1    LIG   0.0000
  41 H            4.7124     3.9391     7.6182 H            1    LIG   0.0000
@<TRIPOS>BOND
   1        1        2 1
   2        2        3 1
   3        3        4 2
   4        3        5 1
   5        5        6 2
   6        6        7 1
   7        7        8 1
   8        8        9 ar
   9        9       10 ar
  10       10       11 ar
  11       11       12 1
  12       11       13 ar
  13       13       14 ar
  14       14        8 ar
  15       14       15 1
  16        7       16 2
  17       16       17 1
  18       17       18 2
  19       18       19 1
  20       19       20 1
  21       19       21 2
  22       21       22 1
  23       22       23 1
  24       22       24 2
  25       24       25 1
  26       25       18 1
  27       25       26 2
  28       26       27 1
  29       27        5 1
  30       27       17 1
  31        1       28 1
  32        1       29 1
  33        1       30 1
  34        6       31 1
  35        9       32 1
  36       10       33 1
  37       13       34 1
  38       20       35 1
  39       20       36 1
  40       20       37 1
  41       21       38 1
  42       23       39 1
  43       23       40 1
  44       23       41 1

@<TRIPOS>MOLECULE

  41   44
SMALL
USER_CHARGES
@<TRIPOS>ATOM
   1 C1          -1.0706    -0.0231     1.0022 C.3          1    LIG   0.0000
   2 O2           0.3450    -0.1345     1.0024 O.3          1    LIG   0.0000
   3 C3           1.0000     1.0000     1.0000 C.2          1    LIG   0.0000
   4 O4           0.4000     2.0392     0.9978 O.2          1    LIG   0.0000
   5 C5           2.4503     1.0000     1.0000 C.2          1    LIG   0.0000
   6 C6           3.0886     0.3921    -0.0481 C.2          1    LIG   0.0000
   7 C7           4.5080     0.3884    -0.0577 C.2          1    LIG   0.0000
   8 C8           5.1734    -0.2595    -1.1710 C.ar         1    LIG   0.0000
   9 C9           6.0237    -1.3313    -0.9181 C.ar         1    LIG   0.0000
  10 C10          6.6727    -1.9675    -1.9717 C.ar         1    LIG   0.0000
  11 C11          6.4652    -1.5247    -3.2738 C.ar         1    LIG   0.0000
  12 Cl12         7.2956    -2.3381    -4.6219 Cl           1    LIG   0.0000
  13 C13          5.6171    -0.4536    -3.5361 C.ar         1    LIG   0.0000
  14 C14          4.9725     0.1761    -2.4764 C.ar         1    LIG   0.0000
  15 Cl15         3.8894     1.5452    -2.8257 Cl           1    LIG   0.0000
  16 N16          5.1437     0.9749     0.9498 N.2          1    LIG   0.0000
  17 C17          4.5128     1.5912     2.0101 C.2          1    LIG   0.0000
  18 C18          4.8998     2.2544     3.1450 C.2          1    LIG   0.0000
  19 C19          6.1498     2.6051     3.7287 C.2          1    LIG   0.0000
  20 C20          7.4604     2.2222     3.0590 C.3          1    LIG   0.0000
  21 C21          6.2236     3.2996     4.9100 C.2          1    LIG   0.0000
  22 C22          5.0292     3.6856     5.5761 C.2          1    LIG   0.0000
  23 C23          5.1514     4.4567     6.8838 C.3          1    LIG   0.0000
  24 N24          3.8663     3.3563     5.0288 N.2          1    LIG   0.0000
  25 C25          3.7551     2.6582     3.8469 C.2          1    LIG   0.0000
  26 N26          2.7558     2.2222     3.1014 N.2          1    LIG   0.0000
  27 N27          3.1606     1.5892     2.0155 N.pl3        1    LIG   0.0000
  28 H           -1.4769    -0.9368     1.0041 H            1    LIG   0.0000
  29 H           -1.3659     0.4748     1.8176 H            1    LIG   0.0000
  30 H           -1.3659     0.4713     0.1846 H            1    LIG   0.0000
  31 H            2.5689    -0.0376    -0.7865 H            1    LIG   0.0000
  32 H            6.1684    -1.6443     0.0205 H            1    LIG   0.0000
  33 H            7.2844    -2.7384    -1.7939 H            1    LIG   0.0000
  34 H            5.4727    -0.1403    -4.4747 H            1    LIG   0.0000
  35 H            8.2258     2.5514     3.6119 H            1    LIG   0.0000
  36 H            7.5135     1.2272     2.9750 H            1    LIG   0.0000
  37 H            7.5035     2.6363     2.1498 H            1    LIG   0.0000
  38 H            7.1142     3.5330     5.3004 H            1    LIG   0.0000
  39 H            6.1179     4.5912     7.1024 H            1    LIG   0.0000
  40 H            4.7041     5.3461     6.7893 H            1    LIG   0.0000
  41 H            4.7124     3.9391     7.6182 H            1    LIG   0.0000
@<TRIPOS>BOND
   1        1        2 1
   2        2        3 1
   3        3        4 2
   4        3        5 1
   5        5        6 2
   6        6        7 1
   7        7        8 1
   8        8        9 ar
   9        9       10 ar
  10       10       11 ar
  11       11       12 1
  12       11       13 ar
  13       13       14 ar
  14       14        8 ar
  15       14       15 1
  16        7       16 2
  17       16       17 1
  18       17       18 2
  19       18       19 1
  20       19       20 1
  21       19       21 2
  22       21       22 1
  23       22       23 1
  24       22       24 2
  25       24       25 1
  26       25       18 1
  27       25       26 2
  28       26       27 1
  29       27        5 1
  30       27       17 1
  31        1       28 1
  32        1       29 1
  33        1       30 1
  34        6       31 1
  35        9       32 1
  36       10       33 1
  37       13       34 1
  38       20       35 1
  39       20       36 1
  40       20       37 1
  41       21       38 1
  42       23       39 1
  43       23       40 1
  44       23       41 1

@<TRIPOS>MOLECULE

  41   44
SMALL
USER_CHARGES
@<TRIPOS>ATOM
   1 C1          -1.0706    -0.0231     1.0022 C.3          1    LIG   0.0000
   2 O2           0.3450    -0.1345     1.0024 O.3          1    LIG   0.0000
   3 C3           1.0000     1.0000     1.0000 C.2          1    LIG   0.0000
   4 O4           0.4000     2.0392     0.9978 O.2          1    LIG   0.0000
   5 C5           2.4503     1.0000     1.0000 C.2          1    LIG   0.0000
   6 C6           3.0886     0.3963     2.0505 C.2          1    LIG   0.0000
   7 C7           4.5080     0.3898     2.0585 C.2          1    LIG   0.0000
   8 C8           5.1734    -0.2503     3.1763 C.ar         1    LIG   0.0000
   9 C9           6.0236    -1.3240     2.9310 C.ar         1    LIG   0.0000
  10 C10          6.6721    -1.9532     3.9890 C.ar         1    LIG   0.0000
  11 C11          6.4638    -1.5019     5.2881 C.ar         1    LIG   0.0000
  12 Cl12         7.2930    -2.3067     6.6421 Cl           1    LIG   0.0000
  13 C13          5.6153    -0.4293     5.5430 C.ar         1    LIG   0.0000
  14 C14          4.9714     0.1935     4.4787 C.ar         1    LIG   0.0000
  15 Cl15         3.8885     1.5653     4.8184 Cl           1    LIG   0.0000
  16 N16          5.1437     0.9690     1.0468 N.2          1    LIG   0.0000
  17 C17          4.5128     1.5792    -0.0171 C.2          1    LIG   0.0000
  18 C18          4.8998     2.2304    -1.1588 C.2          1    LIG   0.0000
  19 C19          6.1498     2.5606    -1.7544 C.2          1    LIG   0.0000
  20 C20          7.4604     2.1720    -1.0880 C.3          1    LIG   0.0000
  21 C21          6.2236     3.2364    -2.9465 C.2          1    LIG   0.0000
  22 C22          5.0292     3.6202    -3.6138 C.2          1    LIG   0.0000
  23 C23          5.1514     4.3671    -4.9355 C.3          1    LIG   0.0000
  24 N24          3.8663     3.3109    -3.0550 N.2          1    LIG   0.0000
  25 C25          3.7551     2.6364    -1.8595 C.2          1    LIG   0.0000
  26 N26          2.7558     2.2088    -1.1091 N.2          1    LIG   0.0000
  27 N27          3.1606     1.5849    -0.0180 N.pl3        1    LIG   0.0000
  28 H           -1.4769    -0.9368     1.0041 H            1    LIG   0.0000
  29 H           -1.3659     0.4748     1.8176 H            1    LIG   0.0000
  30 H           -1.3659     0.4713     0.1846 H            1    LIG   0.0000
  31 H            2.5689    -0.0284     2.7919 H            1    LIG   0.0000
  32 H            6.1685    -1.6434     1.9945 H            1    LIG   0.0000
  33 H            7.2840    -2.7250     3.8166 H            1    LIG   0.0000
  34 H            5.4700    -0.1101     6.4795 H            1    LIG   0.0000
  35 H            8.2258     2.4862    -1.6495 H            1    LIG   0.0000
  36 H            7.5135     2.5968    -0.1842 H            1    LIG   0.0000
  37 H            7.5035     1.1776    -0.9920 H            1    LIG   0.0000
  38 H            7.1142     3.4578    -3.3438 H            1    LIG   0.0000
  39 H            6.1179     4.4892    -5.1612 H            1    LIG   0.0000
  40 H            4.7041     3.8407    -5.6585 H            1    LIG   0.0000
  41 H            4.7124     5.2620    -4.8545 H            1    LIG   0.0000
@<TRIPOS>BOND
   1        1        2 1
   2        2        3 1
   3        3        4 2
   4        3        5 1
   5        5        6 2
   6        6        7 1
   7        7        8 1
   8        8        9 ar
   9        9       10 ar
  10       10       11 ar
  11       11       12 1
  12       11       13 ar
  13       13       14 ar
  14       14        8 ar
  15       14       15 1
  16        7       16 2
  17       16       17 1
  18       17       18 2
  19       18       19 1
  20       19       20 1
  21       19       21 2
  22       21       22 1
  23       22       23 1
  24       22       24 2
  25       24       25 1
  26       25       18 1
  27       25       26 2
  28       26       27 1
  29       27        5 1
  30       27       17 1
  31        1       28 1
  32        1       29 1
  33        1       30 1
  34        6       31 1
  35        9       32 1
  36       10       33 1
  37       13       34 1
  38       20       35 1
  39       20       36 1
  40       20       37 1
  41       21       38 1
  42       23       39 1
  43       23       40 1
  44       23       41 1

@<TRIPOS>MOLECULE

  41   44
SMALL
USER_CHARGES
@<TRIPOS>ATOM
   1 C1          -1.0706    -0.0231     1.0022 C.3          1    LIG   0.0000
   2 O2           0.3450    -0.1345     1.0024 O.3          1    LIG   0.0000
   3 C3           1.0000     1.0000     1.0000 C.2          1    LIG   0.0000
   4 O4           0.4000     2.0392     0.9978 O.2          1    LIG   0.0000
   5 C5           2.4503     1.0000     1.0000 C.2          1    LIG   0.0000
   6 C6           3.0886     0.3963     2.0505 C.2          1    LIG   0.0000
   7 C7           4.5080     0.3898     2.0585 C.2          1    LIG   0.0000
   8 C8           5.1734    -0.2503     3.1763 C.ar         1    LIG   0.0000
   9 C9           6.0237     0.5045     3.9780 C.ar         1    LIG   0.0000
  10 C10          6.6727    -0.0898     5.0558 C.ar         1    LIG   0.0000
  11 C11          6.4652    -1.4389     5.3233 C.ar         1    LIG   0.0000
  12 Cl12         7.2956    -2.1997     6.7019 Cl           1    LIG   0.0000
  13 C13          5.6171    -2.2016     4.5269 C.ar         1    LIG   0.0000
  14 C14          4.9725    -1.5987     3.4517 C.ar         1    LIG   0.0000
  15 Cl15         3.8894    -2.5857     2.4406 Cl           1    LIG   0.0000
  16 N16          5.1437     0.9690     1.0468 N.2          1    LIG   0.0000
  17 C17          4.5128     1.5792    -0.0171 C.2          1    LIG   0.0000
  18 C18          4.8998     2.2304    -1.1588 C.2          1    LIG   0.0000
  19 C19          6.1498     2.5606    -1.7544 C.2          1    LIG   0.0000
  20 C20          7.4604     2.1720    -1.0880 C.3          1    LIG   0.0000
  21 C21          6.2236     3.2364    -2.9465 C.2          1    LIG   0.0000
  22 C22          5.0292     3.6202    -3.6138 C.2          1    LIG   0.0000
  23 C23          5.1514     4.3671    -4.9355 C.3          1    LIG   0.0000
  24 N24          3.8663     3.3109    -3.0550 N.2          1    LIG   0.0000
  25 C25          3.7551     2.6364    -1.8595 C.2          1    LIG   0.0000
  26 N26          2.7558     2.2088    -1.1091 N.2          1    LIG   0.0000
  27 N27          3.1606     1.5849    -0.0180 N.pl3        1    LIG   0.0000
  28 H           -1.4769    -0.9368     1.0041 H            1    LIG   0.0000
  29 H           -1.3659     0.4748     1.8176 H            1    LIG   0.0000
  30 H           -1.3659     0.4713     0.1846 H            1    LIG   0.0000
  31 H            2.5689    -0.0284     2.7919 H            1    LIG   0.0000
  32 H            6.1684     1.4739     3.7798 H            1    LIG   0.0000
  33 H            7.2844     0.4496     5.6344 H            1    LIG   0.0000
  34 H            5.4727    -3.1711     4.7249 H            1    LIG   0.0000
  35 H            8.2258     2.4862    -1.6495 H            1    LIG   0.0000
  36 H            7.5135     2.5968    -0.1842 H            1    LIG   0.0000
  37 H            7.5035     1.1776    -0.9920 H            1    LIG   0.0000
  38 H            7.1142     3.4578    -3.3438 H            1    LIG   0.0000
  39 H            6.1179     4.4892    -5.1612 H            1    LIG   0.0000
  40 H            4.7041     3.8407    -5.6585 H            1    LIG   0.0000
  41 H            4.7124     5.2620    -4.8545 H            1    LIG   0.0000
@<TRIPOS>BOND
   1        1        2 1
   2        2        3 1
   3        3        4 2
   4        3        5 1
   5        5        6 2
   6        6        7 1
   7        7        8 1
   8        8        9 ar
   9        9       10 ar
  10       10       11 ar
  11       11       12 1
  12       11       13 ar
  13       13       14 ar
  14       14        8 ar
  15       14       15 1
  16        7       16 2
  17       16       17 1
  18       17       18 2
  19       18       19 1
  20       19       20 1
  21       19       21 2
  22       21       22 1
  23       22       23 1
  24       22       24 2
  25       24       25 1
  26       25       18 1
  27       25       26 2
  28       26       27 1
  29       27        5 1
  30       27       17 1
  31        1       28 1
  32        1       29 1
  33        1       30 1
  34        6       31 1
  35        9       32 1
  36       10       33 1
  37       13       34 1
  38       20       35 1
  39       20       36 1
  40       20       37 1
  41       21       38 1
  42       23       39 1
  43       23       40 1
  44       23       41 1

@<TRIPOS>MOLECULE

  41   44
SMALL
USER_CHARGES
@<TRIPOS>ATOM
   1 C1          -1.0706    -0.0231     1.0022 C.3          1    LIG   0.0000
   2 O2           0.3450    -0.1345     1.0024 O.3          1    LIG   0.0000
   3 C3           1.0000     1.0000     1.0000 C.2          1    LIG   0.0000
   4 O4           0.4000     2.0392     0.9978 O.2          1    LIG   0.0000
   5 C5           2.4503     1.0000     1.0000 C.2          1    LIG   0.0000
   6 C6           3.0886     2.2117     0.9976 C.2          1    LIG   0.0000
   7 C7           4.5080     2.2217     0.9992 C.2          1    LIG   0.0000
   8 C8           5.1734     3.5099     0.9947 C.ar         1    LIG   0.0000
   9 C9           4.4024     4.6680     0.9905 C.ar         1    LIG   0.0000
  10 C10          5.0203     5.9146     0.9858 C.ar         1    LIG   0.0000
  11 C11          6.4090     5.9927     0.9850 C.ar         1    LIG   0.0000
  12 Cl12         7.1999     7.5874     0.9787 Cl           1    LIG   0.0000
  13 C13          7.1880     4.8402     0.9888 C.ar         1    LIG   0.0000
  14 C14          6.5613     3.5983     0.9937 C.ar         1    LIG   0.0000
  15 Cl15         7.5698     2.1311     0.9989 Cl           1    LIG   0.0000
  16 N16          5.1437     1.0561     1.0034 N.2          1    LIG   0.0000
  17 C17          4.5128    -0.1704     1.0070 C.2          1    LIG   0.0000
  18 C18          4.8998    -1.4848     1.0138 C.2          1    LIG   0.0000
  19 C19          6.1498    -2.1656     1.0257 C.2          1    LIG   0.0000
  20 C20          7.4604    -1.3943     1.0290 C.3          1    LIG   0.0000
  21 C21          6.2236    -3.5359     1.0365 C.2          1    LIG   0.0000
  22 C22          5.0292    -4.3058     1.0377 C.2          1    LIG   0.0000
  23 C23          5.1514    -5.8238     1.0517 C.3          1    LIG   0.0000
  24 N24          3.8663    -3.6672     1.0262 N.2          1    LIG   0.0000
  25 C25          3.7551    -2.2945     1.0126 C.2          1    LIG   0.0000
  26 N26          2.7558    -1.4309     1.0077 N.2          1    LIG   0.0000
  27 N27          3.1606    -0.1741     1.0025 N.pl3        1    LIG   0.0000
  28 H           -1.4769    -0.9368     1.0041 H            1    LIG   0.0000
  29 H           -1.3659     0.4748     1.8176 H            1    LIG   0.0000
  30 H           -1.3659     0.4713     0.1846 H            1    LIG   0.0000
  31 H            2.5689     3.0660     0.9947 H            1    LIG   0.0000
  32 H            3.4044     4.6044     0.9909 H            1    LIG   0.0000
  33 H            4.4694     6.7492     0.9831 H            1    LIG   0.0000
  34 H            8.1860     4.9036     0.9881 H            1    LIG   0.0000
  35 H            8.2258    -2.0377     1.0377 H            1    LIG   0.0000
  36 H            7.5135    -0.8240     0.2093 H            1    LIG   0.0000
  37 H            7.5035    -0.8139     1.8422 H            1    LIG   0.0000
  38 H            7.1142    -3.9908     1.0434 H            1    LIG   0.0000
  39 H            6.1179    -6.0804     1.0589 H            1    LIG   0.0000
  40 H            4.7041    -6.1867     1.8692 H            1    LIG   0.0000
  41 H            4.7124    -6.2011     0.2362 H            1    LIG   0.0000
@<TRIPOS>BOND
   1        1        2 1
   2        2        3 1
   3        3        4 2
   4        3        5 1
   5        5        6 2
   6        6        7 1
   7        7        8 1
   8        8        9 ar
   9        9       10 ar
  10       10       11 ar
  11       11       12 1
  12       11       13 ar
  13       13       14 ar
  14       14        8 ar
  15       14       15 1
  16        7       16 2
  17       16       17 1
  18       17       18 2
  19       18       19 1
  20       19       20 1
  21       19       21 2
  22       21       22 1
  23       22       23 1
  24       22       24 2
  25       24       25 1
  26       25       18 1
  27       25       26 2
  28       26       27 1
  29       27        5 1
  30       27       17 1
  31        1       28 1
  32        1       29 1
  33        1       30 1
  34        6       31 1
  35        9       32 1
  36       10       33 1
  37       13       34 1
  38       20       35 1
  39       20       36 1
  40       20       37 1
  41       21       38 1
  42       23       39 1
  43       23       40 1
  44       23       41 1

@<TRIPOS>MOLECULE

  41   44
SMALL
USER_CHARGES
@<TRIPOS>ATOM
   1 C1          -1.0706    -0.0231     1.0022 C.3          1    LIG   0.0000
   2 O2           0.3450    -0.1345     1.0024 O.3          1    LIG   0.0000
   3 C3           1.0000     1.0000     1.0000 C.2          1    LIG   0.0000
   4 O4           0.4000     2.0392     0.9978 O.2          1    LIG   0.0000
   5 C5           2.4503     1.0000     1.0000 C.2          1    LIG   0.0000
   6 C6           3.0886     2.2117     0.9976 C.2          1    LIG   0.0000
   7 C7           4.5080     2.2217     0.9992 C.2          1    LIG   0.0000
   8 C8           5.1734     3.5099     0.9947 C.ar         1    LIG   0.0000
   9 C9           5.4831     4.1140     2.2091 C.ar         1    LIG   0.0000
  10 C10          6.1213     5.3503     2.2279 C.ar         1    LIG   0.0000
  11 C11          6.4452     5.9742     1.0277 C.ar         1    LIG   0.0000
  12 Cl12         7.2614     7.5559     1.0513 Cl           1    LIG   0.0000
  13 C13          6.1391     5.3779    -0.1913 C.ar         1    LIG   0.0000
  14 C14          5.5011     4.1417    -0.2001 C.ar         1    LIG   0.0000
  15 Cl15         5.1154     3.3892    -1.7668 Cl           1    LIG   0.0000
  16 N16          5.1437     1.0561     1.0034 N.2          1    LIG   0.0000
  17 C17          4.5128    -0.1704     1.0070 C.2          1    LIG   0.0000
  18 C18          4.8998    -1.4848     1.0138 C.2          1    LIG   0.0000
  19 C19          6.1498    -2.1656     1.0257 C.2          1    LIG   0.0000
  20 C20          7.4604    -1.3943     1.0290 C.3          1    LIG   0.0000
  21 C21          6.2236    -3.5359     1.0365 C.2          1    LIG   0.0000
  22 C22          5.0292    -4.3058     1.0377 C.2          1    LIG   0.0000
  23 C23          5.1514    -5.8238     1.0517 C.3          1    LIG   0.0000
  24 N24          3.8663    -3.6672     1.0262 N.2          1    LIG   0.0000
  25 C25          3.7551    -2.2945     1.0126 C.2          1    LIG   0.0000
  26 N26          2.7558    -1.4309     1.0077 N.2          1    LIG   0.0000
  27 N27          3.1606    -0.1741     1.0025 N.pl3        1    LIG   0.0000
  28 H           -1.4769    -0.9368     1.0041 H            1    LIG   0.0000
  29 H           -1.3659     0.4748     1.8176 H            1    LIG   0.0000
  30 H           -1.3659     0.4713     0.1846 H            1    LIG   0.0000
  31 H            2.5689     3.0660     0.9947 H            1    LIG   0.0000
  32 H            5.2472     3.6599     3.0682 H            1    LIG   0.0000
  33 H            6.3457     5.7874     3.0988 H            1    LIG   0.0000
  34 H            6.3747     5.8321    -1.0505 H            1    LIG   0.0000
  35 H            8.2258    -2.0377     1.0377 H            1    LIG   0.0000
  36 H            7.5135    -0.8240     0.2093 H            1    LIG   0.0000
  37 H            7.5035    -0.8139     1.8422 H            1    LIG   0.0000
  38 H            7.1142    -3.9908     1.0434 H            1    LIG   0.0000
  39 H            6.1179    -6.0804     1.0589 H            1    LIG   0.0000
  40 H            4.7041    -6.1867     1.8692 H            1    LIG   0.0000
  41 H            4.7124    -6.2011     0.2362 H            1    LIG   0.0000
@<TRIPOS>BOND
   1        1        2 1
   2        2        3 1
   3        3        4 2
   4        3        5 1
   5        5        6 2
   6        6        7 1
   7        7        8 1
   8        8        9 ar
   9        9       10 ar
  10       10       11 ar
  11       11       12 1
  12       11       13 ar
  13       13       14 ar
  14       14        8 ar
  15       14       15 1
  16        7       16 2
  17       16       17 1
  18       17       18 2
  19       18       19 1
  20       19       20 1
  21       19       21 2
  22       21       22 1
  23       22       23 1
  24       22       24 2
  25       24       25 1
  26       25       18 1
  27       25       26 2
  28       26       27 1
  29       27        5 1
  30       27       17 1
  31        1       28 1
  32        1       29 1
  33        1       30 1
  34        6       31 1
  35        9       32 1
  36       10       33 1
  37       13       34 1
  38       20       35 1
  39       20       36 1
  40       20       37 1
  41       21       38 1
  42       23       39 1
  43       23       40 1
  44       23       41 1

@<TRIPOS>MOLECULE

  41   44
SMALL
USER_CHARGES
@<TRIPOS>ATOM
   1 C1          -1.0706    -0.0231     1.0022 C.3          1    LIG   0.0000
   2 O2           0.3450    -0.1345     1.0024 O.3          1    LIG   0.0000
   3 C3           1.0000     1.0000     1.0000 C.2          1    LIG   0.0000
   4 O4           0.4000     2.0392     0.9978 O.2          1    LIG   0.0000
   5 C5           2.4503     1.0000     1.0000 C.2          1    LIG   0.0000
   6 C6           3.0886     2.2117     0.9976 C.2          1    LIG   0.0000
   7 C7           4.5080     2.2217     0.9992 C.2          1    LIG   0.0000
   8 C8           5.1734     3.5099     0.9947 C.ar         1    LIG   0.0000
   9 C9           5.4833     4.1054    -0.2239 C.ar         1    LIG   0.0000
  10 C10          6.1220     5.3412    -0.2514 C.ar         1    LIG   0.0000
  11 C11          6.4468     5.9730     0.9444 C.ar         1    LIG   0.0000
  12 Cl12         7.2643     7.5539     0.9097 Cl           1    LIG   0.0000
  13 C13          6.1412     5.3851     2.1676 C.ar         1    LIG   0.0000
  14 C14          5.5024     4.1495     2.1850 C.ar         1    LIG   0.0000
  15 Cl15         5.1164     3.4080     3.7570 Cl           1    LIG   0.0000
  16 N16          5.1437     1.0561     1.0034 N.2          1    LIG   0.0000
  17 C17          4.5128    -0.1704     1.0070 C.2          1    LIG   0.0000
  18 C18          4.8998    -1.4848     1.0138 C.2          1    LIG   0.0000
  19 C19          6.1498    -2.1656     1.0257 C.2          1    LIG   0.0000
  20 C20          7.4604    -1.3943     1.0290 C.3          1    LIG   0.0000
  21 C21          6.2236    -3.5359     1.0365 C.2          1    LIG   0.0000
  22 C22          5.0292    -4.3058     1.0377 C.2          1    LIG   0.0000
  23 C23          5.1514    -5.8238     1.0517 C.3          1    LIG   0.0000
  24 N24          3.8663    -3.6672     1.0262 N.2          1    LIG   0.0000
  25 C25          3.7551    -2.2945     1.0126 C.2          1    LIG   0.0000
  26 N26          2.7558    -1.4309     1.0077 N.2          1    LIG   0.0000
  27 N27          3.1606    -0.1741     1.0025 N.pl3        1    LIG   0.0000
  28 H           -1.4769    -0.9368     1.0041 H            1    LIG   0.0000
  29 H           -1.3659     0.4748     1.8176 H            1    LIG   0.0000
  30 H           -1.3659     0.4713     0.1846 H            1    LIG   0.0000
  31 H            2.5689     3.0660     0.9947 H            1    LIG   0.0000
  32 H            5.2471     3.6453    -1.0798 H            1    LIG   0.0000
  33 H            6.3462     5.7724    -1.1254 H            1    LIG   0.0000
  34 H            6.3778     5.8448     3.0235 H            1    LIG   0.0000
  35 H            8.2258    -2.0377     1.0377 H            1    LIG   0.0000
  36 H            7.5135    -0.8240     0.2093 H            1    LIG   0.0000
  37 H            7.5035    -0.8139     1.8422 H            1    LIG   0.0000
  38 H            7.1142    -3.9908     1.0434 H            1    LIG   0.0000
  39 H            6.1179    -6.0804     1.0589 H            1    LIG   0.0000
  40 H            4.7041    -6.1867     1.8692 H            1    LIG   0.0000
  41 H            4.7124    -6.2011     0.2362 H            1    LIG   0.0000
@<TRIPOS>BOND
   1        1        2 1
   2        2        3 1
   3        3        4 2
   4        3        5 1
   5        5        6 2
   6        6        7 1
   7        7        8 1
   8        8        9 ar
   9        9       10 ar
  10       10       11 ar
  11       11       12 1
  12       11       13 ar
  13       13       14 ar
  14       14        8 ar
  15       14       15 1
  16        7       16 2
  17       16       17 1
  18       17       18 2
  19       18       19 1
  20       19       20 1
  21       19       21 2
  22       21       22 1
  23       22       23 1
  24       22       24 2
  25       24       25 1
  26       25       18 1
  27       25       26 2
  28       26       27 1
  29       27        5 1
  30       27       17 1
  31        1       28 1
  32        1       29 1
  33        1       30 1
  34        6       31 1
  35        9       32 1
  36       10       33 1
  37       13       34 1
  38       20       35 1
  39       20       36 1
  40       20       37 1
  41       21       38 1
  42       23       39 1
  43       23       40 1
  44       23       41 1

