@<TRIPOS>MOLECULE
*****
 41 44 0 0 0
SMALL
USER_CHARGES

@<TRIPOS>ATOM
      1 C1         -1.0706   -0.0231    1.0022 C.3     1  LIG1        0.0000
      2 O2          0.3450   -0.1345    1.0024 O.3     1  LIG1        0.0000
      3 C3          1.0000    1.0000    1.0000 C.2     1  LIG1        0.0000
      4 O4          0.4000    2.0392    0.9978 O.2     1  LIG1        0.0000
      5 C5          2.4503    1.0000    1.0000 C.2     1  LIG1        0.0000
      6 C6          3.0886    2.2117    0.9976 C.2     1  LIG1        0.0000
      7 C7          4.5080    2.2217    0.9992 C.2     1  LIG1        0.0000
      8 C8          5.1734    3.5099    0.9947 C.3     1  LIG1        0.0000
      9 C9          4.4024    4.6680    0.9905 C.3     1  LIG1        0.0000
     10 C10         5.0203    5.9146    0.9858 C.3     1  LIG1        0.0000
     11 C11         6.4090    5.9927    0.9850 C.3     1  LIG1        0.0000
     12 Cl12        7.1999    7.5874    0.9787 Cl      1  LIG1        0.0000
     13 C13         7.1880    4.8402    0.9888 C.3     1  LIG1        0.0000
     14 C14         6.5613    3.5983    0.9937 C.3     1  LIG1        0.0000
     15 Cl15        7.5698    2.1311    0.9989 Cl      1  LIG1        0.0000
     16 N16         5.1437    1.0561    1.0034 N.2     1  LIG1        0.0000
     17 C17         4.5128   -0.1704    1.0070 C.2     1  LIG1        0.0000
     18 C18         4.8998   -1.4848    1.0138 C.2     1  LIG1        0.0000
     19 C19         6.1498   -2.1656    1.0257 C.2     1  LIG1        0.0000
     20 C20         7.4604   -1.3943    1.0290 C.3     1  LIG1        0.0000
     21 C21         6.2236   -3.5359    1.0365 C.2     1  LIG1        0.0000
     22 C22         5.0292   -4.3058    1.0377 C.2     1  LIG1        0.0000
     23 C23         5.1514   -5.8238    1.0517 C.3     1  LIG1        0.0000
     24 N24         3.8663   -3.6672    1.0262 N.2     1  LIG1        0.0000
     25 C25         3.7551   -2.2945    1.0126 C.2     1  LIG1        0.0000
     26 N26         2.7558   -1.4309    1.0077 N.2     1  LIG1        0.0000
     27 N27         3.1606   -0.1741    1.0025 N.pl3   1  LIG1        0.0000
     28 H          -1.4769   -0.9368    1.0041 H       1  LIG1        0.0000
     29 H          -1.3659    0.4748    1.8176 H       1  LIG1        0.0000
     30 H          -1.3659    0.4713    0.1846 H       1  LIG1        0.0000
     31 H           2.5689    3.0660    0.9947 H       1  LIG1        0.0000
     32 H           3.4044    4.6044    0.9909 H       1  LIG1        0.0000
     33 H           4.4694    6.7492    0.9831 H       1  LIG1        0.0000
     34 H           8.1860    4.9036    0.9881 H       1  LIG1        0.0000
     35 H           8.2258   -2.0377    1.0377 H       1  LIG1        0.0000
     36 H           7.5135   -0.8240    0.2093 H       1  LIG1        0.0000
     37 H           7.5035   -0.8139    1.8422 H       1  LIG1        0.0000
     38 H           7.1142   -3.9908    1.0434 H       1  LIG1        0.0000
     39 H           6.1179   -6.0804    1.0589 H       1  LIG1        0.0000
     40 H           4.7041   -6.1867    1.8692 H       1  LIG1        0.0000
     41 H           4.7124   -6.2011    0.2362 H       1  LIG1        0.0000
@<TRIPOS>BOND
     1     1     2    1
     2     2     3    1
     3     3     4    2
     4     3     5    1
     5     5     6    2
     6     6     7    1
     7     7     8    1
     8     8     9   ar
     9     9    10   ar
    10    10    11   ar
    11    11    12    1
    12    11    13   ar
    13    13    14   ar
    14    14     8   ar
    15    14    15    1
    16     7    16    2
    17    16    17    1
    18    17    18    2
    19    18    19    1
    20    19    20    1
    21    19    21    2
    22    21    22    1
    23    22    23    1
    24    22    24    2
    25    24    25    1
    26    25    18    1
    27    25    26    2
    28    26    27    1
    29    27     5    1
    30    27    17    1
    31     1    28    1
    32     1    29    1
    33     1    30    1
    34     6    31    1
    35     9    32    1
    36    10    33    1
    37    13    34    1
    38    20    35    1
    39    20    36    1
    40    20    37    1
    41    21    38    1
    42    23    39    1
    43    23    40    1
    44    23    41    1
