@<TRIPOS>MOLECULE
*****
 41 44 0 0 0
SMALL
USER_CHARGES

@<TRIPOS>ATOM
      1 C1         -1.0706   -0.0231    1.0022 C.3     1  LIG1        0.0000
      2 O2          0.3450   -0.1345    1.0024 O.3     1  LIG1        0.0000
      3 C3          1.0000    1.0000    1.0000 C.2     1  LIG1        0.0000
      4 O4          0.4000    2.0392    0.9978 O.2     1  LIG1        0.0000
      5 C5          2.4503    1.0000    1.0000 C.2     1  LIG1        0.0000
      6 C6          3.0886   -0.2117    1.0024 C.2     1  LIG1        0.0000
      7 C7          4.5080   -0.2217    1.0008 C.2     1  LIG1        0.0000
      8 C8          5.1734   -1.5099    1.0053 C.3     1  LIG1        0.0000
      9 C9          4.4024   -2.6680    1.0095 C.3     1  LIG1        0.0000
     10 C10         5.0203   -3.9146    1.0142 C.3     1  LIG1        0.0000
     11 C11         6.4090   -3.9927    1.0150 C.3     1  LIG1        0.0000
     12 Cl12        7.1999   -5.5874    1.0213 Cl      1  LIG1        0.0000
     13 C13         7.1880   -2.8402    1.0112 C.3     1  LIG1        0.0000
     14 C14         6.5613   -1.5983    1.0063 C.3     1  LIG1        0.0000
     15 Cl15        7.5698   -0.1311    1.0011 Cl      1  LIG1        0.0000
     16 N16         5.1437    0.9439    0.9966 N.2     1  LIG1        0.0000
     17 C17         4.5128    2.1704    0.9930 C.2     1  LIG1        0.0000
     18 C18         4.8998    3.4848    0.9862 C.2     1  LIG1        0.0000
     19 C19         6.1498    4.1656    0.9743 C.2     1  LIG1        0.0000
     20 C20         7.4604    3.3943    0.9710 C.3     1  LIG1        0.0000
     21 C21         6.2236    5.5359    0.9635 C.2     1  LIG1        0.0000
     22 C22         5.0292    6.3058    0.9623 C.2     1  LIG1        0.0000
     23 C23         5.1514    7.8238    0.9483 C.3     1  LIG1        0.0000
     24 N24         3.8663    5.6672    0.9738 N.2     1  LIG1        0.0000
     25 C25         3.7551    4.2945    0.9874 C.2     1  LIG1        0.0000
     26 N26         2.7558    3.4309    0.9923 N.2     1  LIG1        0.0000
     27 N27         3.1606    2.1741    0.9975 N.pl3   1  LIG1        0.0000
     28 H          -1.4769   -0.9368    1.0041 H       1  LIG1        0.0000
     29 H          -1.3659    0.4748    1.8176 H       1  LIG1        0.0000
     30 H          -1.3659    0.4713    0.1846 H       1  LIG1        0.0000
     31 H           2.5689   -1.0660    1.0053 H       1  LIG1        0.0000
     32 H           3.4044   -2.6044    1.0091 H       1  LIG1        0.0000
     33 H           4.4694   -4.7492    1.0169 H       1  LIG1        0.0000
     34 H           8.1860   -2.9036    1.0119 H       1  LIG1        0.0000
     35 H           8.2258    4.0377    0.9623 H       1  LIG1        0.0000
     36 H           7.5135    2.8240    1.7907 H       1  LIG1        0.0000
     37 H           7.5035    2.8139    0.1578 H       1  LIG1        0.0000
     38 H           7.1142    5.9908    0.9566 H       1  LIG1        0.0000
     39 H           6.1179    8.0804    0.9411 H       1  LIG1        0.0000
     40 H           4.7041    8.1867    0.1308 H       1  LIG1        0.0000
     41 H           4.7124    8.2011    1.7638 H       1  LIG1        0.0000
@<TRIPOS>BOND
     1     1     2    1
     2     2     3    1
     3     3     4    2
     4     3     5    1
     5     5     6    2
     6     6     7    1
     7     7     8    1
     8     8     9   ar
     9     9    10   ar
    10    10    11   ar
    11    11    12    1
    12    11    13   ar
    13    13    14   ar
    14    14     8   ar
    15    14    15    1
    16     7    16    2
    17    16    17    1
    18    17    18    2
    19    18    19    1
    20    19    20    1
    21    19    21    2
    22    21    22    1
    23    22    23    1
    24    22    24    2
    25    24    25    1
    26    25    18    1
    27    25    26    2
    28    26    27    1
    29    27     5    1
    30    27    17    1
    31     1    28    1
    32     1    29    1
    33     1    30    1
    34     6    31    1
    35     9    32    1
    36    10    33    1
    37    13    34    1
    38    20    35    1
    39    20    36    1
    40    20    37    1
    41    21    38    1
    42    23    39    1
    43    23    40    1
    44    23    41    1
