@<TRIPOS>MOLECULE
*****
 41 44 0 0 0
SMALL
USER_CHARGES

@<TRIPOS>ATOM
      1 C1         -1.0706   -0.0231    1.0022 C.3     1  LIG1        0.0000
      2 O2          0.3450   -0.1345    1.0024 O.3     1  LIG1        0.0000
      3 C3          1.0000    1.0000    1.0000 C.2     1  LIG1        0.0000
      4 O4          0.4000    2.0392    0.9978 O.2     1  LIG1        0.0000
      5 C5          2.4503    1.0000    1.0000 C.2     1  LIG1        0.0000
      6 C6          3.0886    0.3921   -0.0481 C.2     1  LIG1        0.0000
      7 C7          4.5080    0.3884   -0.0577 C.2     1  LIG1        0.0000
      8 C8          5.1734   -0.2595   -1.1710 C.3     1  LIG1        0.0000
      9 C9          6.0237   -1.3313   -0.9181 C.3     1  LIG1        0.0000
     10 C10         6.6727   -1.9675   -1.9717 C.3     1  LIG1        0.0000
     11 C11         6.4652   -1.5247   -3.2738 C.3     1  LIG1        0.0000
     12 Cl12        7.2956   -2.3381   -4.6219 Cl      1  LIG1        0.0000
     13 C13         5.6171   -0.4536   -3.5361 C.3     1  LIG1        0.0000
     14 C14         4.9725    0.1761   -2.4764 C.3     1  LIG1        0.0000
     15 Cl15        3.8894    1.5452   -2.8257 Cl      1  LIG1        0.0000
     16 N16         5.1437    0.9749    0.9498 N.2     1  LIG1        0.0000
     17 C17         4.5128    1.5912    2.0101 C.2     1  LIG1        0.0000
     18 C18         4.8998    2.2544    3.1450 C.2     1  LIG1        0.0000
     19 C19         6.1498    2.6051    3.7287 C.2     1  LIG1        0.0000
     20 C20         7.4604    2.2222    3.0590 C.3     1  LIG1        0.0000
     21 C21         6.2236    3.2996    4.9100 C.2     1  LIG1        0.0000
     22 C22         5.0292    3.6856    5.5761 C.2     1  LIG1        0.0000
     23 C23         5.1514    4.4567    6.8838 C.3     1  LIG1        0.0000
     24 N24         3.8663    3.3563    5.0288 N.2     1  LIG1        0.0000
     25 C25         3.7551    2.6582    3.8469 C.2     1  LIG1        0.0000
     26 N26         2.7558    2.2222    3.1014 N.2     1  LIG1        0.0000
     27 N27         3.1606    1.5892    2.0155 N.pl3   1  LIG1        0.0000
     28 H          -1.4769   -0.9368    1.0041 H       1  LIG1        0.0000
     29 H          -1.3659    0.4748    1.8176 H       1  LIG1        0.0000
     30 H          -1.3659    0.4713    0.1846 H       1  LIG1        0.0000
     31 H           2.5689   -0.0376   -0.7865 H       1  LIG1        0.0000
     32 H           6.1684   -1.6443    0.0205 H       1  LIG1        0.0000
     33 H           7.2844   -2.7384   -1.7939 H       1  LIG1        0.0000
     34 H           5.4727   -0.1403   -4.4747 H       1  LIG1        0.0000
     35 H           8.2258    2.5514    3.6119 H       1  LIG1        0.0000
     36 H           7.5135    1.2272    2.9750 H       1  LIG1        0.0000
     37 H           7.5035    2.6363    2.1498 H       1  LIG1        0.0000
     38 H           7.1142    3.5330    5.3004 H       1  LIG1        0.0000
     39 H           6.1179    4.5912    7.1024 H       1  LIG1        0.0000
     40 H           4.7041    5.3461    6.7893 H       1  LIG1        0.0000
     41 H           4.7124    3.9391    7.6182 H       1  LIG1        0.0000
@<TRIPOS>BOND
     1     1     2    1
     2     2     3    1
     3     3     4    2
     4     3     5    1
     5     5     6    2
     6     6     7    1
     7     7     8    1
     8     8     9   ar
     9     9    10   ar
    10    10    11   ar
    11    11    12    1
    12    11    13   ar
    13    13    14   ar
    14    14     8   ar
    15    14    15    1
    16     7    16    2
    17    16    17    1
    18    17    18    2
    19    18    19    1
    20    19    20    1
    21    19    21    2
    22    21    22    1
    23    22    23    1
    24    22    24    2
    25    24    25    1
    26    25    18    1
    27    25    26    2
    28    26    27    1
    29    27     5    1
    30    27    17    1
    31     1    28    1
    32     1    29    1
    33     1    30    1
    34     6    31    1
    35     9    32    1
    36    10    33    1
    37    13    34    1
    38    20    35    1
    39    20    36    1
    40    20    37    1
    41    21    38    1
    42    23    39    1
    43    23    40    1
    44    23    41    1
