@<TRIPOS>MOLECULE
*****
 41 44 0 0 0
SMALL
USER_CHARGES

@<TRIPOS>ATOM
      1 C1         -1.0706   -0.0231    1.0022 C.3     1  LIG1        0.0000
      2 O2          0.3450   -0.1345    1.0024 O.3     1  LIG1        0.0000
      3 C3          1.0000    1.0000    1.0000 C.2     1  LIG1        0.0000
      4 O4          0.4000    2.0392    0.9978 O.2     1  LIG1        0.0000
      5 C5          2.4503    1.0000    1.0000 C.2     1  LIG1        0.0000
      6 C6          3.0886    0.3963    2.0505 C.2     1  LIG1        0.0000
      7 C7          4.5080    0.3898    2.0585 C.2     1  LIG1        0.0000
      8 C8          5.1734   -0.2503    3.1763 C.3     1  LIG1        0.0000
      9 C9          6.0236   -1.3240    2.9310 C.3     1  LIG1        0.0000
     10 C10         6.6721   -1.9532    3.9890 C.3     1  LIG1        0.0000
     11 C11         6.4638   -1.5019    5.2881 C.3     1  LIG1        0.0000
     12 Cl12        7.2930   -2.3067    6.6421 Cl      1  LIG1        0.0000
     13 C13         5.6153   -0.4293    5.5430 C.3     1  LIG1        0.0000
     14 C14         4.9714    0.1935    4.4787 C.3     1  LIG1        0.0000
     15 Cl15        3.8885    1.5653    4.8184 Cl      1  LIG1        0.0000
     16 N16         5.1437    0.9690    1.0468 N.2     1  LIG1        0.0000
     17 C17         4.5128    1.5792   -0.0171 C.2     1  LIG1        0.0000
     18 C18         4.8998    2.2304   -1.1588 C.2     1  LIG1        0.0000
     19 C19         6.1498    2.5606   -1.7544 C.2     1  LIG1        0.0000
     20 C20         7.4604    2.1720   -1.0880 C.3     1  LIG1        0.0000
     21 C21         6.2236    3.2364   -2.9465 C.2     1  LIG1        0.0000
     22 C22         5.0292    3.6202   -3.6138 C.2     1  LIG1        0.0000
     23 C23         5.1514    4.3671   -4.9355 C.3     1  LIG1        0.0000
     24 N24         3.8663    3.3109   -3.0550 N.2     1  LIG1        0.0000
     25 C25         3.7551    2.6364   -1.8595 C.2     1  LIG1        0.0000
     26 N26         2.7558    2.2088   -1.1091 N.2     1  LIG1        0.0000
     27 N27         3.1606    1.5849   -0.0180 N.pl3   1  LIG1        0.0000
     28 H          -1.4769   -0.9368    1.0041 H       1  LIG1        0.0000
     29 H          -1.3659    0.4748    1.8176 H       1  LIG1        0.0000
     30 H          -1.3659    0.4713    0.1846 H       1  LIG1        0.0000
     31 H           2.5689   -0.0284    2.7919 H       1  LIG1        0.0000
     32 H           6.1685   -1.6434    1.9945 H       1  LIG1        0.0000
     33 H           7.2840   -2.7250    3.8166 H       1  LIG1        0.0000
     34 H           5.4700   -0.1101    6.4795 H       1  LIG1        0.0000
     35 H           8.2258    2.4862   -1.6495 H       1  LIG1        0.0000
     36 H           7.5135    2.5968   -0.1842 H       1  LIG1        0.0000
     37 H           7.5035    1.1776   -0.9920 H       1  LIG1        0.0000
     38 H           7.1142    3.4578   -3.3438 H       1  LIG1        0.0000
     39 H           6.1179    4.4892   -5.1612 H       1  LIG1        0.0000
     40 H           4.7041    3.8407   -5.6585 H       1  LIG1        0.0000
     41 H           4.7124    5.2620   -4.8545 H       1  LIG1        0.0000
@<TRIPOS>BOND
     1     1     2    1
     2     2     3    1
     3     3     4    2
     4     3     5    1
     5     5     6    2
     6     6     7    1
     7     7     8    1
     8     8     9   ar
     9     9    10   ar
    10    10    11   ar
    11    11    12    1
    12    11    13   ar
    13    13    14   ar
    14    14     8   ar
    15    14    15    1
    16     7    16    2
    17    16    17    1
    18    17    18    2
    19    18    19    1
    20    19    20    1
    21    19    21    2
    22    21    22    1
    23    22    23    1
    24    22    24    2
    25    24    25    1
    26    25    18    1
    27    25    26    2
    28    26    27    1
    29    27     5    1
    30    27    17    1
    31     1    28    1
    32     1    29    1
    33     1    30    1
    34     6    31    1
    35     9    32    1
    36    10    33    1
    37    13    34    1
    38    20    35    1
    39    20    36    1
    40    20    37    1
    41    21    38    1
    42    23    39    1
    43    23    40    1
    44    23    41    1
