@<TRIPOS>MOLECULE

  72   76
SMALL
USER_CHARGES
@<TRIPOS>ATOM
   1 C1          -0.1873    -4.6567     3.0733 C.3          1    LIG   0.0000
   2 O2           0.5018    -3.7171     2.2618 O.3          1    LIG   0.0000
   3 C3           0.3196    -3.9148     0.8675 C.3          1    LIG   0.0000
   4 C4           1.0977    -2.8584     0.1000 C.3          1    LIG   0.0000
   5 N5           0.6109    -1.5251     0.4728 N.4          1    LIG   1.0000
   6 C6           1.4736    -0.5258    -0.1893 C.3          1    LIG   0.0000
   7 C7           1.2989     0.9051     0.3075 C.3          1    LIG   0.0000
   8 C8           0.2038     1.6950    -0.4027 C.3          1    LIG   0.0000
   9 N9          -1.0206     0.9052    -0.6110 N.am         1    LIG   0.0000
  10 C10         -1.7867     1.1060    -1.7663 C.2          1    LIG   0.0000
  11 O11         -2.2665     0.1669    -2.3388 O.2          1    LIG   0.0000
  12 C12         -2.0102     2.5128    -2.2944 C.3          1    LIG   0.0000
  13 C13         -1.3110     3.5205    -1.3958 C.3          1    LIG   0.0000
  14 C14         -1.5339     4.9302    -1.9198 C.3          1    LIG   0.0000
  15 C15         -0.9740     5.0372    -3.3295 C.3          1    LIG   0.0000
  16 C16         -1.6811     4.0398    -4.2335 C.3          1    LIG   0.0000
  17 C17         -1.4547     2.6324    -3.7048 C.3          1    LIG   0.0000
  18 C18         -3.1717     4.3394    -4.2512 C.3          1    LIG   0.0000
  19 C19         -3.7398     4.2317    -2.8452 C.3          1    LIG   0.0000
  20 C20         -5.2293     4.5362    -2.8619 C.ar         1    LIG   0.0000
  21 C21         -5.7159     5.6037    -2.1141 C.ar         1    LIG   0.0000
  22 C22         -7.0795     5.8785    -2.1322 C.ar         1    LIG   0.0000
  23 C23         -7.9447     5.0956    -2.8889 C.ar         1    LIG   0.0000
  24 C24         -9.4332     5.4043    -2.9027 C.3          1    LIG   0.0000
  25 C25         -7.4481     4.0301    -3.6340 C.ar         1    LIG   0.0000
  26 C26         -8.3638     3.1534    -4.4729 C.3          1    LIG   0.0000
  27 C27         -6.0859     3.7473    -3.6221 C.ar         1    LIG   0.0000
  28 C28         -3.0255     5.2259    -1.9432 C.3          1    LIG   0.0000
  29 C29         -3.4983     2.8261    -2.3174 C.3          1    LIG   0.0000
  30 C30         -1.4535    -0.1036     0.3699 C.3          1    LIG   0.0000
  31 C31         -0.8201    -1.4665     0.1255 C.3          1    LIG   0.0000
  32 H            0.7025    -1.4184     1.4628 H            1    LIG   0.0000
  33 H           -1.0710     5.5867    -1.3242 H            1    LIG   0.0000
  34 H           -1.3147     4.1113    -5.1612 H            1    LIG   0.0000
  35 H           -0.0130    -4.4558     4.0373 H            1    LIG   0.0000
  36 H           -1.1690    -4.5966     2.8926 H            1    LIG   0.0000
  37 H            0.1347    -5.5795     2.8616 H            1    LIG   0.0000
  38 H           -0.6524    -3.8404     0.6445 H            1    LIG   0.0000
  39 H            0.6513    -4.8233     0.6135 H            1    LIG   0.0000
  40 H            2.0697    -2.9328     0.3230 H            1    LIG   0.0000
  41 H            0.9694    -2.9977    -0.8819 H            1    LIG   0.0000
  42 H            1.2713    -0.5412    -1.1685 H            1    LIG   0.0000
  43 H            2.4262    -0.7915    -0.0415 H            1    LIG   0.0000
  44 H            2.1651     1.3879     0.1788 H            1    LIG   0.0000
  45 H            1.0774     0.8720     1.2821 H            1    LIG   0.0000
  46 H           -0.0227     2.4967     0.1505 H            1    LIG   0.0000
  47 H            0.5490     1.9912    -1.2932 H            1    LIG   0.0000
  48 H           -0.3304     3.3248    -1.3796 H            1    LIG   0.0000
  49 H           -1.6803     3.4497    -0.4692 H            1    LIG   0.0000
  50 H           -1.1202     5.9635    -3.6767 H            1    LIG   0.0000
  51 H            0.0057     4.8374    -3.3149 H            1    LIG   0.0000
  52 H           -1.9181     1.9761    -4.3003 H            1    LIG   0.0000
  53 H           -0.4741     2.4367    -3.6925 H            1    LIG   0.0000
  54 H           -3.3194     5.2656    -4.5981 H            1    LIG   0.0000
  55 H           -3.6346     3.6827    -4.8467 H            1    LIG   0.0000
  56 H           -5.0933     6.1665    -1.5704 H            1    LIG   0.0000
  57 H           -7.4397     6.6433    -1.5980 H            1    LIG   0.0000
  58 H           -9.6151     6.1948    -2.3180 H            1    LIG   0.0000
  59 H           -9.7227     5.6078    -3.8380 H            1    LIG   0.0000
  60 H           -9.9408     4.6133    -2.5613 H            1    LIG   0.0000
  61 H           -7.8227     2.4477    -4.9302 H            1    LIG   0.0000
  62 H           -9.0444     2.7207    -3.8817 H            1    LIG   0.0000
  63 H           -8.8268     3.7151    -5.1586 H            1    LIG   0.0000
  64 H           -5.7255     2.9825    -4.1561 H            1    LIG   0.0000
  65 H           -3.3919     5.1537    -1.0155 H            1    LIG   0.0000
  66 H           -3.1739     6.1524    -2.2890 H            1    LIG   0.0000
  67 H           -3.9638     2.1681    -2.9093 H            1    LIG   0.0000
  68 H           -3.8635     2.7561    -1.3891 H            1    LIG   0.0000
  69 H           -2.4475    -0.1978     0.3152 H            1    LIG   0.0000
  70 H           -1.1981     0.2089     1.2849 H            1    LIG   0.0000
  71 H           -1.3068    -2.1443     0.6765 H            1    LIG   0.0000
  72 H           -0.9193    -1.6915    -0.8438 H            1    LIG   0.0000
@<TRIPOS>BOND
   1        1        2 1
   2        2        3 1
   3        3        4 1
   4        4        5 1
   5        5        6 1
   6        6        7 1
   7        7        8 1
   8        8        9 1
   9        9       10 am
  10       10       11 2
  11       10       12 1
  12       12       13 1
  13       13       14 1
  14       14       15 1
  15       15       16 1
  16       16       17 1
  17       17       12 1
  18       16       18 1
  19       18       19 1
  20       19       20 1
  21       20       21 ar
  22       21       22 ar
  23       22       23 ar
  24       23       24 1
  25       23       25 ar
  26       25       26 1
  27       25       27 ar
  28       27       20 ar
  29       19       28 1
  30       28       14 1
  31       19       29 1
  32       29       12 1
  33        9       30 1
  34       30       31 1
  35       31        5 1
  36        5       32 1
  37       14       33 1
  38       16       34 1
  39        1       35 1
  40        1       36 1
  41        1       37 1
  42        3       38 1
  43        3       39 1
  44        4       40 1
  45        4       41 1
  46        6       42 1
  47        6       43 1
  48        7       44 1
  49        7       45 1
  50        8       46 1
  51        8       47 1
  52       13       48 1
  53       13       49 1
  54       15       50 1
  55       15       51 1
  56       17       52 1
  57       17       53 1
  58       18       54 1
  59       18       55 1
  60       21       56 1
  61       22       57 1
  62       24       58 1
  63       24       59 1
  64       24       60 1
  65       26       61 1
  66       26       62 1
  67       26       63 1
  68       27       64 1
  69       28       65 1
  70       28       66 1
  71       29       67 1
  72       29       68 1
  73       30       69 1
  74       30       70 1
  75       31       71 1
  76       31       72 1

@<TRIPOS>MOLECULE

  72   76
SMALL
USER_CHARGES
@<TRIPOS>ATOM
   1 C1          -0.1873    -4.6567     3.0733 C.3          1    LIG   0.0000
   2 O2           0.5018    -3.7171     2.2618 O.3          1    LIG   0.0000
   3 C3           0.3196    -3.9148     0.8675 C.3          1    LIG   0.0000
   4 C4           1.0977    -2.8584     0.1000 C.3          1    LIG   0.0000
   5 N5           0.6109    -1.5251     0.4728 N.4          1    LIG   1.0000
   6 C6           1.4736    -0.5258    -0.1893 C.3          1    LIG   0.0000
   7 C7           1.2989     0.9051     0.3075 C.3          1    LIG   0.0000
   8 C8           0.2038     1.6950    -0.4027 C.3          1    LIG   0.0000
   9 N9          -1.0206     0.9052    -0.6110 N.am         1    LIG   0.0000
  10 C10         -1.7867     1.1060    -1.7663 C.2          1    LIG   0.0000
  11 O11         -2.2665     0.1669    -2.3388 O.2          1    LIG   0.0000
  12 C12         -2.0102     2.5128    -2.2944 C.3          1    LIG   0.0000
  13 C13         -3.4982     2.8243    -2.3246 C.3          1    LIG   0.0000
  14 C14         -3.7264     4.2309    -2.8546 C.3          1    LIG   0.0000
  15 C15         -3.0199     5.2295    -1.9513 C.3          1    LIG   0.0000
  16 C16         -1.5296     4.9287    -1.9299 C.3          1    LIG   0.0000
  17 C17         -1.3075     3.5213    -1.3993 C.3          1    LIG   0.0000
  18 C18         -0.9713     5.0309    -3.3406 C.3          1    LIG   0.0000
  19 C19         -1.6709     4.0332    -4.2496 C.3          1    LIG   0.0000
  20 C20         -1.1163     4.1387    -5.6612 C.ar         1    LIG   0.0000
  21 C21         -1.9707     4.4746    -6.7067 C.ar         1    LIG   0.0000
  22 C22         -1.4589     4.5698    -7.9967 C.ar         1    LIG   0.0000
  23 C23         -0.1099     4.3324    -8.2374 C.ar         1    LIG   0.0000
  24 C24          0.4400     4.4396    -9.6506 C.3          1    LIG   0.0000
  25 C25          0.7368     3.9975    -7.1848 C.ar         1    LIG   0.0000
  26 C26          2.2164     3.7316    -7.4105 C.3          1    LIG   0.0000
  27 C27          0.2342     3.8996    -5.8912 C.ar         1    LIG   0.0000
  28 C28         -3.1615     4.3335    -4.2628 C.3          1    LIG   0.0000
  29 C29         -1.4562     2.6293    -3.7059 C.3          1    LIG   0.0000
  30 C30         -1.4535    -0.1036     0.3699 C.3          1    LIG   0.0000
  31 C31         -0.8201    -1.4665     0.1255 C.3          1    LIG   0.0000
  32 H            0.7025    -1.4184     1.4628 H            1    LIG   0.0000
  33 H           -4.7066     4.4283    -2.8711 H            1    LIG   0.0000
  34 H           -1.0642     5.5865    -1.3378 H            1    LIG   0.0000
  35 H           -0.0130    -4.4558     4.0373 H            1    LIG   0.0000
  36 H           -1.1690    -4.5966     2.8926 H            1    LIG   0.0000
  37 H            0.1347    -5.5795     2.8616 H            1    LIG   0.0000
  38 H           -0.6524    -3.8404     0.6445 H            1    LIG   0.0000
  39 H            0.6513    -4.8233     0.6135 H            1    LIG   0.0000
  40 H            2.0697    -2.9328     0.3230 H            1    LIG   0.0000
  41 H            0.9694    -2.9977    -0.8819 H            1    LIG   0.0000
  42 H            1.2713    -0.5412    -1.1685 H            1    LIG   0.0000
  43 H            2.4262    -0.7915    -0.0415 H            1    LIG   0.0000
  44 H            2.1651     1.3879     0.1788 H            1    LIG   0.0000
  45 H            1.0774     0.8720     1.2821 H            1    LIG   0.0000
  46 H           -0.0227     2.4967     0.1505 H            1    LIG   0.0000
  47 H            0.5490     1.9912    -1.2932 H            1    LIG   0.0000
  48 H           -3.8694     2.7554    -1.3986 H            1    LIG   0.0000
  49 H           -3.9617     2.1674    -2.9193 H            1    LIG   0.0000
  50 H           -3.1680     6.1556    -2.2984 H            1    LIG   0.0000
  51 H           -3.3875     5.1583    -1.0241 H            1    LIG   0.0000
  52 H           -0.3273     3.3239    -1.3834 H            1    LIG   0.0000
  53 H           -1.6760     3.4548    -0.4720 H            1    LIG   0.0000
  54 H           -1.1188     5.9565    -3.6890 H            1    LIG   0.0000
  55 H            0.0089     4.8332    -3.3241 H            1    LIG   0.0000
  56 H           -2.9405     4.6455    -6.5329 H            1    LIG   0.0000
  57 H           -2.0645     4.8103    -8.7553 H            1    LIG   0.0000
  58 H           -0.2986     4.6867   -10.2779 H            1    LIG   0.0000
  59 H            1.1508     5.1424    -9.6793 H            1    LIG   0.0000
  60 H            0.8295     3.5602    -9.9244 H            1    LIG   0.0000
  61 H            2.6517     3.5082    -6.5384 H            1    LIG   0.0000
  62 H            2.3246     2.9647    -8.0431 H            1    LIG   0.0000
  63 H            2.6462     4.5469    -7.7984 H            1    LIG   0.0000
  64 H            0.8395     3.6590    -5.1325 H            1    LIG   0.0000
  65 H           -3.6265     3.6751    -4.8547 H            1    LIG   0.0000
  66 H           -3.3097     5.2586    -4.6123 H            1    LIG   0.0000
  67 H           -0.4767     2.4281    -3.6924 H            1    LIG   0.0000
  68 H           -1.9233     1.9724    -4.2978 H            1    LIG   0.0000
  69 H           -2.4475    -0.1978     0.3152 H            1    LIG   0.0000
  70 H           -1.1981     0.2089     1.2849 H            1    LIG   0.0000
  71 H           -1.3068    -2.1443     0.6765 H            1    LIG   0.0000
  72 H           -0.9193    -1.6915    -0.8438 H            1    LIG   0.0000
@<TRIPOS>BOND
   1        1        2 1
   2        2        3 1
   3        3        4 1
   4        4        5 1
   5        5        6 1
   6        6        7 1
   7        7        8 1
   8        8        9 1
   9        9       10 am
  10       10       11 2
  11       10       12 1
  12       12       13 1
  13       13       14 1
  14       14       15 1
  15       15       16 1
  16       16       17 1
  17       17       12 1
  18       16       18 1
  19       18       19 1
  20       19       20 1
  21       20       21 ar
  22       21       22 ar
  23       22       23 ar
  24       23       24 1
  25       23       25 ar
  26       25       26 1
  27       25       27 ar
  28       27       20 ar
  29       19       28 1
  30       28       14 1
  31       19       29 1
  32       29       12 1
  33        9       30 1
  34       30       31 1
  35       31        5 1
  36        5       32 1
  37       14       33 1
  38       16       34 1
  39        1       35 1
  40        1       36 1
  41        1       37 1
  42        3       38 1
  43        3       39 1
  44        4       40 1
  45        4       41 1
  46        6       42 1
  47        6       43 1
  48        7       44 1
  49        7       45 1
  50        8       46 1
  51        8       47 1
  52       13       48 1
  53       13       49 1
  54       15       50 1
  55       15       51 1
  56       17       52 1
  57       17       53 1
  58       18       54 1
  59       18       55 1
  60       21       56 1
  61       22       57 1
  62       24       58 1
  63       24       59 1
  64       24       60 1
  65       26       61 1
  66       26       62 1
  67       26       63 1
  68       27       64 1
  69       28       65 1
  70       28       66 1
  71       29       67 1
  72       29       68 1
  73       30       69 1
  74       30       70 1
  75       31       71 1
  76       31       72 1

@<TRIPOS>MOLECULE

  72   76
SMALL
USER_CHARGES
@<TRIPOS>ATOM
   1 C1          -0.1873    -4.6567     3.0733 C.3          1    LIG   0.0000
   2 O2           0.5018    -3.7171     2.2618 O.3          1    LIG   0.0000
   3 C3           0.3196    -3.9148     0.8675 C.3          1    LIG   0.0000
   4 C4           1.0977    -2.8584     0.1000 C.3          1    LIG   0.0000
   5 N5           0.6109    -1.5251     0.4728 N.4          1    LIG   1.0000
   6 C6           1.4736    -0.5258    -0.1893 C.3          1    LIG   0.0000
   7 C7           1.2989     0.9051     0.3075 C.3          1    LIG   0.0000
   8 C8           0.2038     1.6950    -0.4027 C.3          1    LIG   0.0000
   9 N9          -1.0206     0.9052    -0.6110 N.am         1    LIG   0.0000
  10 C10         -1.7867     1.1060    -1.7663 C.2          1    LIG   0.0000
  11 O11         -2.2665     0.1669    -2.3388 O.2          1    LIG   0.0000
  12 C12         -2.0102     2.5128    -2.2944 C.3          1    LIG   0.0000
  13 C13         -1.4501     2.6322    -3.7029 C.3          1    LIG   0.0000
  14 C14         -1.6700     4.0396    -4.2345 C.3          1    LIG   0.0000
  15 C15         -3.1601     4.3418    -4.2566 C.3          1    LIG   0.0000
  16 C16         -3.7203     4.2363    -2.8470 C.3          1    LIG   0.0000
  17 C17         -3.4977     2.8274    -2.3207 C.3          1    LIG   0.0000
  18 C18         -3.0099     5.2316    -1.9431 C.3          1    LIG   0.0000
  19 C19         -1.5194     4.9343    -1.9136 C.3          1    LIG   0.0000
  20 C20         -0.8083     5.9324    -1.0138 C.ar         1    LIG   0.0000
  21 C21          0.1796     6.7519    -1.5507 C.ar         1    LIG   0.0000
  22 C22          0.8279     7.6636    -0.7238 C.ar         1    LIG   0.0000
  23 C23          0.4917     7.7543     0.6227 C.ar         1    LIG   0.0000
  24 C24          1.2053     8.7542     1.5182 C.3          1    LIG   0.0000
  25 C25         -0.4982     6.9304     1.1502 C.ar         1    LIG   0.0000
  26 C26         -0.8920     7.0022     2.6168 C.3          1    LIG   0.0000
  27 C27         -1.1519     6.0154     0.3311 C.ar         1    LIG   0.0000
  28 C28         -0.9646     5.0343    -3.3258 C.3          1    LIG   0.0000
  29 C29         -1.3045     3.5194    -1.3991 C.3          1    LIG   0.0000
  30 C30         -1.4535    -0.1036     0.3699 C.3          1    LIG   0.0000
  31 C31         -0.8201    -1.4665     0.1255 C.3          1    LIG   0.0000
  32 H            0.7025    -1.4184     1.4628 H            1    LIG   0.0000
  33 H           -1.2995     4.1100    -5.1607 H            1    LIG   0.0000
  34 H           -4.6998     4.4372    -2.8607 H            1    LIG   0.0000
  35 H           -0.0130    -4.4558     4.0373 H            1    LIG   0.0000
  36 H           -1.1690    -4.5966     2.8926 H            1    LIG   0.0000
  37 H            0.1347    -5.5795     2.8616 H            1    LIG   0.0000
  38 H           -0.6524    -3.8404     0.6445 H            1    LIG   0.0000
  39 H            0.6513    -4.8233     0.6135 H            1    LIG   0.0000
  40 H            2.0697    -2.9328     0.3230 H            1    LIG   0.0000
  41 H            0.9694    -2.9977    -0.8819 H            1    LIG   0.0000
  42 H            1.2713    -0.5412    -1.1685 H            1    LIG   0.0000
  43 H            2.4262    -0.7915    -0.0415 H            1    LIG   0.0000
  44 H            2.1651     1.3879     0.1788 H            1    LIG   0.0000
  45 H            1.0774     0.8720     1.2821 H            1    LIG   0.0000
  46 H           -0.0227     2.4967     0.1505 H            1    LIG   0.0000
  47 H            0.5490     1.9912    -1.2932 H            1    LIG   0.0000
  48 H           -1.9133     1.9771    -4.2998 H            1    LIG   0.0000
  49 H           -0.4701     2.4339    -3.6872 H            1    LIG   0.0000
  50 H           -3.3073     5.2674    -4.6053 H            1    LIG   0.0000
  51 H           -3.6247     3.6843    -4.8499 H            1    LIG   0.0000
  52 H           -3.8677     2.7573    -1.3943 H            1    LIG   0.0000
  53 H           -3.9642     2.1736    -2.9164 H            1    LIG   0.0000
  54 H           -3.1561     6.1578    -2.2908 H            1    LIG   0.0000
  55 H           -3.3803     5.1609    -1.0169 H            1    LIG   0.0000
  56 H            0.4207     6.6864    -2.5190 H            1    LIG   0.0000
  57 H            1.5396     8.2571    -1.0996 H            1    LIG   0.0000
  58 H            1.8806     9.2599     0.9812 H            1    LIG   0.0000
  59 H            0.5386     9.3931     1.9020 H            1    LIG   0.0000
  60 H            1.6662     8.2675     2.2603 H            1    LIG   0.0000
  61 H           -1.6151     6.3364     2.8007 H            1    LIG   0.0000
  62 H           -0.0961     6.7958     3.1860 H            1    LIG   0.0000
  63 H           -1.2237     7.9216     2.8282 H            1    LIG   0.0000
  64 H           -1.8636     5.4217     0.7067 H            1    LIG   0.0000
  65 H            0.0148     4.8329    -3.3117 H            1    LIG   0.0000
  66 H           -1.1095     5.9606    -3.6735 H            1    LIG   0.0000
  67 H           -1.6705     3.4477    -0.4713 H            1    LIG   0.0000
  68 H           -0.3248     3.3190    -1.3874 H            1    LIG   0.0000
  69 H           -2.4475    -0.1978     0.3152 H            1    LIG   0.0000
  70 H           -1.1981     0.2089     1.2849 H            1    LIG   0.0000
  71 H           -1.3068    -2.1443     0.6765 H            1    LIG   0.0000
  72 H           -0.9193    -1.6915    -0.8438 H            1    LIG   0.0000
@<TRIPOS>BOND
   1        1        2 1
   2        2        3 1
   3        3        4 1
   4        4        5 1
   5        5        6 1
   6        6        7 1
   7        7        8 1
   8        8        9 1
   9        9       10 am
  10       10       11 2
  11       10       12 1
  12       12       13 1
  13       13       14 1
  14       14       15 1
  15       15       16 1
  16       16       17 1
  17       17       12 1
  18       16       18 1
  19       18       19 1
  20       19       20 1
  21       20       21 ar
  22       21       22 ar
  23       22       23 ar
  24       23       24 1
  25       23       25 ar
  26       25       26 1
  27       25       27 ar
  28       27       20 ar
  29       19       28 1
  30       28       14 1
  31       19       29 1
  32       29       12 1
  33        9       30 1
  34       30       31 1
  35       31        5 1
  36        5       32 1
  37       14       33 1
  38       16       34 1
  39        1       35 1
  40        1       36 1
  41        1       37 1
  42        3       38 1
  43        3       39 1
  44        4       40 1
  45        4       41 1
  46        6       42 1
  47        6       43 1
  48        7       44 1
  49        7       45 1
  50        8       46 1
  51        8       47 1
  52       13       48 1
  53       13       49 1
  54       15       50 1
  55       15       51 1
  56       17       52 1
  57       17       53 1
  58       18       54 1
  59       18       55 1
  60       21       56 1
  61       22       57 1
  62       24       58 1
  63       24       59 1
  64       24       60 1
  65       26       61 1
  66       26       62 1
  67       26       63 1
  68       27       64 1
  69       28       65 1
  70       28       66 1
  71       29       67 1
  72       29       68 1
  73       30       69 1
  74       30       70 1
  75       31       71 1
  76       31       72 1

@<TRIPOS>MOLECULE

  72   76
SMALL
USER_CHARGES
@<TRIPOS>ATOM
   1 C1          -0.1873    -4.6567     3.0733 C.3          1    LIG   0.0000
   2 O2           0.5018    -3.7171     2.2618 O.3          1    LIG   0.0000
   3 C3           0.3196    -3.9148     0.8675 C.3          1    LIG   0.0000
   4 C4           1.0977    -2.8584     0.1000 C.3          1    LIG   0.0000
   5 N5           0.6109    -1.5251     0.4728 N.4          1    LIG   1.0000
   6 C6           1.4736    -0.5258    -0.1893 C.3          1    LIG   0.0000
   7 C7           1.2989     0.9051     0.3075 C.3          1    LIG   0.0000
   8 C8           0.2038     1.6950    -0.4027 C.3          1    LIG   0.0000
   9 N9          -1.0206     0.9052    -0.6110 N.am         1    LIG   0.0000
  10 C10         -1.7867     1.1060    -1.7663 C.2          1    LIG   0.0000
  11 O11         -2.2665     0.1669    -2.3388 O.2          1    LIG   0.0000
  12 C12         -2.0103     2.5130    -2.2944 C.3          1    LIG   0.0000
  13 C13         -1.4504     2.6400    -3.7025 C.3          1    LIG   0.0000
  14 C14         -1.6641     4.0488    -4.2335 C.3          1    LIG   0.0000
  15 C15         -0.9577     5.0409    -3.3227 C.3          1    LIG   0.0000
  16 C16         -1.5181     4.9313    -1.9134 C.3          1    LIG   0.0000
  17 C17         -1.3062     3.5172    -1.3956 C.3          1    LIG   0.0000
  18 C18         -3.0095     5.2271    -1.9370 C.3          1    LIG   0.0000
  19 C19         -3.7283     4.2381    -2.8407 C.3          1    LIG   0.0000
  20 C20         -5.2169     4.5456    -2.8686 C.ar         1    LIG   0.0000
  21 C21         -6.1218     3.5770    -2.4456 C.ar         1    LIG   0.0000
  22 C22         -7.4830     3.8627    -2.4730 C.ar         1    LIG   0.0000
  23 C23         -7.9328     5.1013    -2.9174 C.ar         1    LIG   0.0000
  24 C24         -9.4223     5.4042    -2.9429 C.3          1    LIG   0.0000
  25 C25         -7.0197     6.0638    -3.3380 C.ar         1    LIG   0.0000
  26 C26         -7.4750     7.4283    -3.8296 C.3          1    LIG   0.0000
  27 C27         -5.6564     5.7873    -3.3146 C.ar         1    LIG   0.0000
  28 C28         -3.1552     4.3474    -4.2450 C.3          1    LIG   0.0000
  29 C29         -3.4973     2.8289    -2.3185 C.3          1    LIG   0.0000
  30 C30         -1.4535    -0.1036     0.3699 C.3          1    LIG   0.0000
  31 C31         -0.8201    -1.4665     0.1255 C.3          1    LIG   0.0000
  32 H            0.7025    -1.4184     1.4628 H            1    LIG   0.0000
  33 H           -1.2973     4.1203    -5.1611 H            1    LIG   0.0000
  34 H           -1.0540     5.5834    -1.3139 H            1    LIG   0.0000
  35 H           -0.0130    -4.4558     4.0373 H            1    LIG   0.0000
  36 H           -1.1690    -4.5966     2.8926 H            1    LIG   0.0000
  37 H            0.1347    -5.5795     2.8616 H            1    LIG   0.0000
  38 H           -0.6524    -3.8404     0.6445 H            1    LIG   0.0000
  39 H            0.6513    -4.8233     0.6135 H            1    LIG   0.0000
  40 H            2.0697    -2.9328     0.3230 H            1    LIG   0.0000
  41 H            0.9694    -2.9977    -0.8819 H            1    LIG   0.0000
  42 H            1.2713    -0.5412    -1.1685 H            1    LIG   0.0000
  43 H            2.4262    -0.7915    -0.0415 H            1    LIG   0.0000
  44 H            2.1651     1.3879     0.1788 H            1    LIG   0.0000
  45 H            1.0774     0.8720     1.2821 H            1    LIG   0.0000
  46 H           -0.0227     2.4967     0.1505 H            1    LIG   0.0000
  47 H            0.5490     1.9912    -1.2932 H            1    LIG   0.0000
  48 H           -1.9151     1.9881    -4.3018 H            1    LIG   0.0000
  49 H           -0.4710     2.4389    -3.6869 H            1    LIG   0.0000
  50 H            0.0217     4.8393    -3.3077 H            1    LIG   0.0000
  51 H           -1.1018     5.9688    -3.6666 H            1    LIG   0.0000
  52 H           -0.3269     3.3153    -1.3796 H            1    LIG   0.0000
  53 H           -1.6763     3.4465    -0.4693 H            1    LIG   0.0000
  54 H           -3.3755     5.1527    -1.0093 H            1    LIG   0.0000
  55 H           -3.1567     6.1548    -2.2800 H            1    LIG   0.0000
  56 H           -5.7977     2.6867    -2.1259 H            1    LIG   0.0000
  57 H           -8.1418     3.1734    -2.1714 H            1    LIG   0.0000
  58 H           -9.9298     4.6093    -2.6104 H            1    LIG   0.0000
  59 H           -9.6126     6.1908    -2.3556 H            1    LIG   0.0000
  60 H           -9.7043     5.6117    -3.8797 H            1    LIG   0.0000
  61 H           -6.6769     7.9740    -4.0849 H            1    LIG   0.0000
  62 H           -8.0695     7.3145    -4.6256 H            1    LIG   0.0000
  63 H           -7.9782     7.8940    -3.1017 H            1    LIG   0.0000
  64 H           -4.9974     6.4764    -3.6162 H            1    LIG   0.0000
  65 H           -3.3030     5.2743    -4.5900 H            1    LIG   0.0000
  66 H           -3.6179     3.6918    -4.8417 H            1    LIG   0.0000
  67 H           -3.9639     2.1754    -2.9146 H            1    LIG   0.0000
  68 H           -3.8653     2.7560    -1.3915 H            1    LIG   0.0000
  69 H           -2.4475    -0.1978     0.3152 H            1    LIG   0.0000
  70 H           -1.1981     0.2089     1.2849 H            1    LIG   0.0000
  71 H           -1.3068    -2.1443     0.6765 H            1    LIG   0.0000
  72 H           -0.9193    -1.6915    -0.8438 H            1    LIG   0.0000
@<TRIPOS>BOND
   1        1        2 1
   2        2        3 1
   3        3        4 1
   4        4        5 1
   5        5        6 1
   6        6        7 1
   7        7        8 1
   8        8        9 1
   9        9       10 am
  10       10       11 2
  11       10       12 1
  12       12       13 1
  13       13       14 1
  14       14       15 1
  15       15       16 1
  16       16       17 1
  17       17       12 1
  18       16       18 1
  19       18       19 1
  20       19       20 1
  21       20       21 ar
  22       21       22 ar
  23       22       23 ar
  24       23       24 1
  25       23       25 ar
  26       25       26 1
  27       25       27 ar
  28       27       20 ar
  29       19       28 1
  30       28       14 1
  31       19       29 1
  32       29       12 1
  33        9       30 1
  34       30       31 1
  35       31        5 1
  36        5       32 1
  37       14       33 1
  38       16       34 1
  39        1       35 1
  40        1       36 1
  41        1       37 1
  42        3       38 1
  43        3       39 1
  44        4       40 1
  45        4       41 1
  46        6       42 1
  47        6       43 1
  48        7       44 1
  49        7       45 1
  50        8       46 1
  51        8       47 1
  52       13       48 1
  53       13       49 1
  54       15       50 1
  55       15       51 1
  56       17       52 1
  57       17       53 1
  58       18       54 1
  59       18       55 1
  60       21       56 1
  61       22       57 1
  62       24       58 1
  63       24       59 1
  64       24       60 1
  65       26       61 1
  66       26       62 1
  67       26       63 1
  68       27       64 1
  69       28       65 1
  70       28       66 1
  71       29       67 1
  72       29       68 1
  73       30       69 1
  74       30       70 1
  75       31       71 1
  76       31       72 1

@<TRIPOS>MOLECULE

  72   76
SMALL
USER_CHARGES
@<TRIPOS>ATOM
   1 C1          -0.1873    -4.6567     3.0733 C.3          1    LIG   0.0000
   2 O2           0.5018    -3.7171     2.2618 O.3          1    LIG   0.0000
   3 C3           0.3196    -3.9148     0.8675 C.3          1    LIG   0.0000
   4 C4           1.0977    -2.8584     0.1000 C.3          1    LIG   0.0000
   5 N5           0.6109    -1.5251     0.4728 N.4          1    LIG   1.0000
   6 C6           1.4736    -0.5258    -0.1893 C.3          1    LIG   0.0000
   7 C7           1.2989     0.9051     0.3075 C.3          1    LIG   0.0000
   8 C8           0.2038     1.6950    -0.4027 C.3          1    LIG   0.0000
   9 N9          -1.0206     0.9052    -0.6110 N.am         1    LIG   0.0000
  10 C10         -1.7867     1.1060    -1.7663 C.2          1    LIG   0.0000
  11 O11         -2.2665     0.1669    -2.3388 O.2          1    LIG   0.0000
  12 C12         -2.0103     2.5130    -2.2944 C.3          1    LIG   0.0000
  13 C13         -1.3150     3.5263    -1.3989 C.3          1    LIG   0.0000
  14 C14         -1.5421     4.9374    -1.9182 C.3          1    LIG   0.0000
  15 C15         -3.0343     5.2299    -1.9404 C.3          1    LIG   0.0000
  16 C16         -3.7390     4.2294    -2.8430 C.3          1    LIG   0.0000
  17 C17         -3.4989     2.8220    -2.3193 C.3          1    LIG   0.0000
  18 C18         -3.1741     4.3321    -4.2512 C.3          1    LIG   0.0000
  19 C19         -1.6828     4.0366    -4.2431 C.3          1    LIG   0.0000
  20 C20         -1.1220     4.1514    -5.6516 C.ar         1    LIG   0.0000
  21 C21         -0.5162     3.0442    -6.2372 C.ar         1    LIG   0.0000
  22 C22         -0.0043     3.1538    -7.5260 C.ar         1    LIG   0.0000
  23 C23         -0.0977     4.3555    -8.2200 C.ar         1    LIG   0.0000
  24 C24          0.4641     4.4651    -9.6283 C.3          1    LIG   0.0000
  25 C25         -0.7060     5.4572    -7.6257 C.ar         1    LIG   0.0000
  26 C26         -0.8263     6.7860    -8.3542 C.3          1    LIG   0.0000
  27 C27         -1.2207     5.3574    -6.3370 C.ar         1    LIG   0.0000
  28 C28         -0.9876     5.0350    -3.3309 C.3          1    LIG   0.0000
  29 C29         -1.4572     2.6322    -3.7057 C.3          1    LIG   0.0000
  30 C30         -1.4535    -0.1036     0.3699 C.3          1    LIG   0.0000
  31 C31         -0.8201    -1.4665     0.1255 C.3          1    LIG   0.0000
  32 H            0.7025    -1.4184     1.4628 H            1    LIG   0.0000
  33 H           -1.0770     5.5952    -1.3257 H            1    LIG   0.0000
  34 H           -4.7203     4.4211    -2.8581 H            1    LIG   0.0000
  35 H           -0.0130    -4.4558     4.0373 H            1    LIG   0.0000
  36 H           -1.1690    -4.5966     2.8926 H            1    LIG   0.0000
  37 H            0.1347    -5.5795     2.8616 H            1    LIG   0.0000
  38 H           -0.6524    -3.8404     0.6445 H            1    LIG   0.0000
  39 H            0.6513    -4.8233     0.6135 H            1    LIG   0.0000
  40 H            2.0697    -2.9328     0.3230 H            1    LIG   0.0000
  41 H            0.9694    -2.9977    -0.8819 H            1    LIG   0.0000
  42 H            1.2713    -0.5412    -1.1685 H            1    LIG   0.0000
  43 H            2.4262    -0.7915    -0.0415 H            1    LIG   0.0000
  44 H            2.1651     1.3879     0.1788 H            1    LIG   0.0000
  45 H            1.0774     0.8720     1.2821 H            1    LIG   0.0000
  46 H           -0.0227     2.4967     0.1505 H            1    LIG   0.0000
  47 H            0.5490     1.9912    -1.2932 H            1    LIG   0.0000
  48 H           -0.3337     3.3346    -1.3845 H            1    LIG   0.0000
  49 H           -1.6826     3.4534    -0.4718 H            1    LIG   0.0000
  50 H           -3.4012     5.1569    -1.0131 H            1    LIG   0.0000
  51 H           -3.1866     6.1553    -2.2873 H            1    LIG   0.0000
  52 H           -3.8663     2.7483    -1.3921 H            1    LIG   0.0000
  53 H           -3.9619     2.1654    -2.9145 H            1    LIG   0.0000
  54 H           -3.6382     3.6721    -4.8420 H            1    LIG   0.0000
  55 H           -3.3255     5.2567    -4.6010 H            1    LIG   0.0000
  56 H           -0.4496     2.1804    -5.7378 H            1    LIG   0.0000
  57 H            0.4334     2.3642    -7.9560 H            1    LIG   0.0000
  58 H            0.8620     3.5881    -9.8977 H            1    LIG   0.0000
  59 H           -0.2705     4.7067   -10.2623 H            1    LIG   0.0000
  60 H            1.1704     5.1727    -9.6512 H            1    LIG   0.0000
  61 H           -1.2902     7.4481    -7.7655 H            1    LIG   0.0000
  62 H            0.0864     7.1249    -8.5823 H            1    LIG   0.0000
  63 H           -1.3544     6.6592    -9.1939 H            1    LIG   0.0000
  64 H           -1.6584     6.1469    -5.9068 H            1    LIG   0.0000
  65 H           -1.1367     5.9600    -3.6803 H            1    LIG   0.0000
  66 H           -0.0071     4.8390    -3.3143 H            1    LIG   0.0000
  67 H           -0.4765     2.4372    -3.6934 H            1    LIG   0.0000
  68 H           -1.9206     1.9736    -4.2985 H            1    LIG   0.0000
  69 H           -2.4475    -0.1978     0.3152 H            1    LIG   0.0000
  70 H           -1.1981     0.2089     1.2849 H            1    LIG   0.0000
  71 H           -1.3068    -2.1443     0.6765 H            1    LIG   0.0000
  72 H           -0.9193    -1.6915    -0.8438 H            1    LIG   0.0000
@<TRIPOS>BOND
   1        1        2 1
   2        2        3 1
   3        3        4 1
   4        4        5 1
   5        5        6 1
   6        6        7 1
   7        7        8 1
   8        8        9 1
   9        9       10 am
  10       10       11 2
  11       10       12 1
  12       12       13 1
  13       13       14 1
  14       14       15 1
  15       15       16 1
  16       16       17 1
  17       17       12 1
  18       16       18 1
  19       18       19 1
  20       19       20 1
  21       20       21 ar
  22       21       22 ar
  23       22       23 ar
  24       23       24 1
  25       23       25 ar
  26       25       26 1
  27       25       27 ar
  28       27       20 ar
  29       19       28 1
  30       28       14 1
  31       19       29 1
  32       29       12 1
  33        9       30 1
  34       30       31 1
  35       31        5 1
  36        5       32 1
  37       14       33 1
  38       16       34 1
  39        1       35 1
  40        1       36 1
  41        1       37 1
  42        3       38 1
  43        3       39 1
  44        4       40 1
  45        4       41 1
  46        6       42 1
  47        6       43 1
  48        7       44 1
  49        7       45 1
  50        8       46 1
  51        8       47 1
  52       13       48 1
  53       13       49 1
  54       15       50 1
  55       15       51 1
  56       17       52 1
  57       17       53 1
  58       18       54 1
  59       18       55 1
  60       21       56 1
  61       22       57 1
  62       24       58 1
  63       24       59 1
  64       24       60 1
  65       26       61 1
  66       26       62 1
  67       26       63 1
  68       27       64 1
  69       28       65 1
  70       28       66 1
  71       29       67 1
  72       29       68 1
  73       30       69 1
  74       30       70 1
  75       31       71 1
  76       31       72 1

@<TRIPOS>MOLECULE

  72   76
SMALL
USER_CHARGES
@<TRIPOS>ATOM
   1 C1          -0.1873    -4.6567     3.0733 C.3          1    LIG   0.0000
   2 O2           0.5018    -3.7171     2.2618 O.3          1    LIG   0.0000
   3 C3           0.3196    -3.9148     0.8675 C.3          1    LIG   0.0000
   4 C4           1.0977    -2.8584     0.1000 C.3          1    LIG   0.0000
   5 N5           0.6109    -1.5251     0.4728 N.4          1    LIG   1.0000
   6 C6           1.4736    -0.5258    -0.1893 C.3          1    LIG   0.0000
   7 C7           1.2989     0.9051     0.3075 C.3          1    LIG   0.0000
   8 C8           0.2038     1.6950    -0.4027 C.3          1    LIG   0.0000
   9 N9          -1.0206     0.9052    -0.6110 N.am         1    LIG   0.0000
  10 C10         -1.7867     1.1060    -1.7663 C.2          1    LIG   0.0000
  11 O11         -2.2665     0.1669    -2.3388 O.2          1    LIG   0.0000
  12 C12         -2.0103     2.5130    -2.2944 C.3          1    LIG   0.0000
  13 C13         -3.4969     2.8304    -2.3292 C.3          1    LIG   0.0000
  14 C14         -3.7274     4.2349    -2.8648 C.3          1    LIG   0.0000
  15 C15         -3.1614     4.3340    -4.2728 C.3          1    LIG   0.0000
  16 C16         -1.6717     4.0301    -4.2487 C.3          1    LIG   0.0000
  17 C17         -1.4525     2.6271    -3.7044 C.3          1    LIG   0.0000
  18 C18         -0.9665     5.0249    -3.3401 C.3          1    LIG   0.0000
  19 C19         -1.5202     4.9318    -1.9272 C.3          1    LIG   0.0000
  20 C20         -0.8189     5.9359    -1.0264 C.ar         1    LIG   0.0000
  21 C21         -1.5601     6.6401    -0.0827 C.ar         1    LIG   0.0000
  22 C22         -0.9144     7.5581     0.7392 C.ar         1    LIG   0.0000
  23 C23          0.4551     7.7683     0.6187 C.ar         1    LIG   0.0000
  24 C24          1.1518     8.7731     1.5220 C.3          1    LIG   0.0000
  25 C25          1.1878     7.0586    -0.3281 C.ar         1    LIG   0.0000
  26 C26          2.6858     7.2622    -0.4877 C.3          1    LIG   0.0000
  27 C27          0.5509     6.1387    -1.1548 C.ar         1    LIG   0.0000
  28 C28         -3.0115     5.2273    -1.9620 C.3          1    LIG   0.0000
  29 C29         -1.3056     3.5215    -1.4011 C.3          1    LIG   0.0000
  30 C30         -1.4535    -0.1036     0.3699 C.3          1    LIG   0.0000
  31 C31         -0.8201    -1.4665     0.1255 C.3          1    LIG   0.0000
  32 H            0.7025    -1.4184     1.4628 H            1    LIG   0.0000
  33 H           -4.7070     4.4354    -2.8788 H            1    LIG   0.0000
  34 H           -1.2989     4.0952    -5.1744 H            1    LIG   0.0000
  35 H           -0.0130    -4.4558     4.0373 H            1    LIG   0.0000
  36 H           -1.1690    -4.5966     2.8926 H            1    LIG   0.0000
  37 H            0.1347    -5.5795     2.8616 H            1    LIG   0.0000
  38 H           -0.6524    -3.8404     0.6445 H            1    LIG   0.0000
  39 H            0.6513    -4.8233     0.6135 H            1    LIG   0.0000
  40 H            2.0697    -2.9328     0.3230 H            1    LIG   0.0000
  41 H            0.9694    -2.9977    -0.8819 H            1    LIG   0.0000
  42 H            1.2713    -0.5412    -1.1685 H            1    LIG   0.0000
  43 H            2.4262    -0.7915    -0.0415 H            1    LIG   0.0000
  44 H            2.1651     1.3879     0.1788 H            1    LIG   0.0000
  45 H            1.0774     0.8720     1.2821 H            1    LIG   0.0000
  46 H           -0.0227     2.4967     0.1505 H            1    LIG   0.0000
  47 H            0.5490     1.9912    -1.2932 H            1    LIG   0.0000
  48 H           -3.8693     2.7658    -1.4034 H            1    LIG   0.0000
  49 H           -3.9606     2.1717    -2.9217 H            1    LIG   0.0000
  50 H           -3.6256     3.6752    -4.8649 H            1    LIG   0.0000
  51 H           -3.3064     5.2586    -4.6251 H            1    LIG   0.0000
  52 H           -1.9158     1.9678    -4.2965 H            1    LIG   0.0000
  53 H           -0.4724     2.4294    -3.6881 H            1    LIG   0.0000
  54 H            0.0125     4.8217    -3.3250 H            1    LIG   0.0000
  55 H           -1.1093     5.9507    -3.6903 H            1    LIG   0.0000
  56 H           -2.5447     6.4882     0.0036 H            1    LIG   0.0000
  57 H           -1.4378     8.0696     1.4206 H            1    LIG   0.0000
  58 H            0.4820     9.1888     2.1373 H            1    LIG   0.0000
  59 H            1.8541     8.3068     2.0599 H            1    LIG   0.0000
  60 H            1.5777     9.4846     0.9631 H            1    LIG   0.0000
  61 H            3.0277     6.6660    -1.2141 H            1    LIG   0.0000
  62 H            2.8691     8.2161    -0.7255 H            1    LIG   0.0000
  63 H            3.1461     7.0385     0.3714 H            1    LIG   0.0000
  64 H            1.0741     5.6271    -1.8364 H            1    LIG   0.0000
  65 H           -3.1558     6.1534    -2.3105 H            1    LIG   0.0000
  66 H           -3.3828     5.1579    -1.0361 H            1    LIG   0.0000
  67 H           -1.6745     3.4555    -0.4739 H            1    LIG   0.0000
  68 H           -0.3261     3.3207    -1.3853 H            1    LIG   0.0000
  69 H           -2.4475    -0.1978     0.3152 H            1    LIG   0.0000
  70 H           -1.1981     0.2089     1.2849 H            1    LIG   0.0000
  71 H           -1.3068    -2.1443     0.6765 H            1    LIG   0.0000
  72 H           -0.9193    -1.6915    -0.8438 H            1    LIG   0.0000
@<TRIPOS>BOND
   1        1        2 1
   2        2        3 1
   3        3        4 1
   4        4        5 1
   5        5        6 1
   6        6        7 1
   7        7        8 1
   8        8        9 1
   9        9       10 am
  10       10       11 2
  11       10       12 1
  12       12       13 1
  13       13       14 1
  14       14       15 1
  15       15       16 1
  16       16       17 1
  17       17       12 1
  18       16       18 1
  19       18       19 1
  20       19       20 1
  21       20       21 ar
  22       21       22 ar
  23       22       23 ar
  24       23       24 1
  25       23       25 ar
  26       25       26 1
  27       25       27 ar
  28       27       20 ar
  29       19       28 1
  30       28       14 1
  31       19       29 1
  32       29       12 1
  33        9       30 1
  34       30       31 1
  35       31        5 1
  36        5       32 1
  37       14       33 1
  38       16       34 1
  39        1       35 1
  40        1       36 1
  41        1       37 1
  42        3       38 1
  43        3       39 1
  44        4       40 1
  45        4       41 1
  46        6       42 1
  47        6       43 1
  48        7       44 1
  49        7       45 1
  50        8       46 1
  51        8       47 1
  52       13       48 1
  53       13       49 1
  54       15       50 1
  55       15       51 1
  56       17       52 1
  57       17       53 1
  58       18       54 1
  59       18       55 1
  60       21       56 1
  61       22       57 1
  62       24       58 1
  63       24       59 1
  64       24       60 1
  65       26       61 1
  66       26       62 1
  67       26       63 1
  68       27       64 1
  69       28       65 1
  70       28       66 1
  71       29       67 1
  72       29       68 1
  73       30       69 1
  74       30       70 1
  75       31       71 1
  76       31       72 1

@<TRIPOS>MOLECULE

  72   76
SMALL
USER_CHARGES
@<TRIPOS>ATOM
   1 C1           2.7432    -4.6189     2.1496 C.3          1    LIG   0.0000
   2 O2           1.6148    -3.7643     2.2628 O.3          1    LIG   0.0000
   3 C3           0.7069    -3.8593     1.1751 C.3          1    LIG   0.0000
   4 C4           1.0977    -2.8584     0.1000 C.3          1    LIG   0.0000
   5 N5           0.6109    -1.5251     0.4728 N.4          1    LIG   1.0000
   6 C6           1.4736    -0.5258    -0.1893 C.3          1    LIG   0.0000
   7 C7           1.2989     0.9051     0.3075 C.3          1    LIG   0.0000
   8 C8           0.2038     1.6950    -0.4027 C.3          1    LIG   0.0000
   9 N9          -1.0206     0.9052    -0.6110 N.am         1    LIG   0.0000
  10 C10         -1.7867     1.1060    -1.7663 C.2          1    LIG   0.0000
  11 O11         -2.2665     0.1669    -2.3388 O.2          1    LIG   0.0000
  12 C12         -2.0102     2.5128    -2.2944 C.3          1    LIG   0.0000
  13 C13         -1.3110     3.5205    -1.3958 C.3          1    LIG   0.0000
  14 C14         -1.5339     4.9302    -1.9198 C.3          1    LIG   0.0000
  15 C15         -0.9740     5.0372    -3.3295 C.3          1    LIG   0.0000
  16 C16         -1.6811     4.0398    -4.2335 C.3          1    LIG   0.0000
  17 C17         -1.4547     2.6324    -3.7048 C.3          1    LIG   0.0000
  18 C18         -3.1717     4.3394    -4.2512 C.3          1    LIG   0.0000
  19 C19         -3.7398     4.2317    -2.8452 C.3          1    LIG   0.0000
  20 C20         -5.2293     4.5362    -2.8619 C.ar         1    LIG   0.0000
  21 C21         -6.1285     3.5682    -2.4258 C.ar         1    LIG   0.0000
  22 C22         -7.4905     3.8510    -2.4431 C.ar         1    LIG   0.0000
  23 C23         -7.9466     5.0863    -2.8905 C.ar         1    LIG   0.0000
  24 C24         -9.4369     5.3860    -2.9050 C.3          1    LIG   0.0000
  25 C25         -7.0391     6.0481    -3.3244 C.ar         1    LIG   0.0000
  26 C26         -7.5013     7.4090    -3.8197 C.3          1    LIG   0.0000
  27 C27         -5.6751     5.7745    -3.3111 C.ar         1    LIG   0.0000
  28 C28         -3.0255     5.2259    -1.9432 C.3          1    LIG   0.0000
  29 C29         -3.4983     2.8261    -2.3174 C.3          1    LIG   0.0000
  30 C30         -1.4535    -0.1036     0.3699 C.3          1    LIG   0.0000
  31 C31         -0.8201    -1.4665     0.1255 C.3          1    LIG   0.0000
  32 H            0.7025    -1.4184     1.4628 H            1    LIG   0.0000
  33 H           -1.0710     5.5867    -1.3242 H            1    LIG   0.0000
  34 H           -1.3147     4.1113    -5.1612 H            1    LIG   0.0000
  35 H            3.3343    -4.4979     2.9470 H            1    LIG   0.0000
  36 H            2.4377    -5.5699     2.1024 H            1    LIG   0.0000
  37 H            3.2522    -4.3908     1.3196 H            1    LIG   0.0000
  38 H           -0.2192    -3.6599     1.4955 H            1    LIG   0.0000
  39 H            0.7364    -4.7842     0.7960 H            1    LIG   0.0000
  40 H            2.0935    -2.8368     0.0109 H            1    LIG   0.0000
  41 H            0.6908    -3.1301    -0.7721 H            1    LIG   0.0000
  42 H            1.2713    -0.5412    -1.1685 H            1    LIG   0.0000
  43 H            2.4262    -0.7915    -0.0415 H            1    LIG   0.0000
  44 H            2.1651     1.3879     0.1788 H            1    LIG   0.0000
  45 H            1.0774     0.8720     1.2821 H            1    LIG   0.0000
  46 H           -0.0227     2.4967     0.1505 H            1    LIG   0.0000
  47 H            0.5490     1.9912    -1.2932 H            1    LIG   0.0000
  48 H           -0.3304     3.3248    -1.3796 H            1    LIG   0.0000
  49 H           -1.6803     3.4497    -0.4692 H            1    LIG   0.0000
  50 H           -1.1202     5.9635    -3.6767 H            1    LIG   0.0000
  51 H            0.0057     4.8374    -3.3149 H            1    LIG   0.0000
  52 H           -1.9181     1.9761    -4.3003 H            1    LIG   0.0000
  53 H           -0.4741     2.4367    -3.6925 H            1    LIG   0.0000
  54 H           -3.3194     5.2656    -4.5981 H            1    LIG   0.0000
  55 H           -3.6346     3.6827    -4.8467 H            1    LIG   0.0000
  56 H           -5.7999     2.6803    -2.1039 H            1    LIG   0.0000
  57 H           -8.1452     3.1621    -2.1320 H            1    LIG   0.0000
  58 H           -9.9399     4.5921    -2.5636 H            1    LIG   0.0000
  59 H           -9.6237     6.1756    -2.3204 H            1    LIG   0.0000
  60 H           -9.7273     5.5877    -3.8404 H            1    LIG   0.0000
  61 H           -6.7065     7.9548    -4.0849 H            1    LIG   0.0000
  62 H           -8.1024     7.2895    -4.6099 H            1    LIG   0.0000
  63 H           -7.9992     7.8777    -3.0900 H            1    LIG   0.0000
  64 H           -5.0201     6.4631    -3.6222 H            1    LIG   0.0000
  65 H           -3.3919     5.1537    -1.0155 H            1    LIG   0.0000
  66 H           -3.1739     6.1524    -2.2890 H            1    LIG   0.0000
  67 H           -3.9638     2.1681    -2.9093 H            1    LIG   0.0000
  68 H           -3.8635     2.7561    -1.3891 H            1    LIG   0.0000
  69 H           -2.4475    -0.1978     0.3152 H            1    LIG   0.0000
  70 H           -1.1981     0.2089     1.2849 H            1    LIG   0.0000
  71 H           -1.3068    -2.1443     0.6765 H            1    LIG   0.0000
  72 H           -0.9193    -1.6915    -0.8438 H            1    LIG   0.0000
@<TRIPOS>BOND
   1        1        2 1
   2        2        3 1
   3        3        4 1
   4        4        5 1
   5        5        6 1
   6        6        7 1
   7        7        8 1
   8        8        9 1
   9        9       10 am
  10       10       11 2
  11       10       12 1
  12       12       13 1
  13       13       14 1
  14       14       15 1
  15       15       16 1
  16       16       17 1
  17       17       12 1
  18       16       18 1
  19       18       19 1
  20       19       20 1
  21       20       21 ar
  22       21       22 ar
  23       22       23 ar
  24       23       24 1
  25       23       25 ar
  26       25       26 1
  27       25       27 ar
  28       27       20 ar
  29       19       28 1
  30       28       14 1
  31       19       29 1
  32       29       12 1
  33        9       30 1
  34       30       31 1
  35       31        5 1
  36        5       32 1
  37       14       33 1
  38       16       34 1
  39        1       35 1
  40        1       36 1
  41        1       37 1
  42        3       38 1
  43        3       39 1
  44        4       40 1
  45        4       41 1
  46        6       42 1
  47        6       43 1
  48        7       44 1
  49        7       45 1
  50        8       46 1
  51        8       47 1
  52       13       48 1
  53       13       49 1
  54       15       50 1
  55       15       51 1
  56       17       52 1
  57       17       53 1
  58       18       54 1
  59       18       55 1
  60       21       56 1
  61       22       57 1
  62       24       58 1
  63       24       59 1
  64       24       60 1
  65       26       61 1
  66       26       62 1
  67       26       63 1
  68       27       64 1
  69       28       65 1
  70       28       66 1
  71       29       67 1
  72       29       68 1
  73       30       69 1
  74       30       70 1
  75       31       71 1
  76       31       72 1

@<TRIPOS>MOLECULE

  72   76
SMALL
USER_CHARGES
@<TRIPOS>ATOM
   1 C1           2.9277    -4.5485     1.6909 C.3          1    LIG   0.0000
   2 O2           1.7352    -3.9306     2.1518 O.3          1    LIG   0.0000
   3 C3           0.7069    -3.8593     1.1751 C.3          1    LIG   0.0000
   4 C4           1.0977    -2.8584     0.1000 C.3          1    LIG   0.0000
   5 N5           0.6109    -1.5251     0.4728 N.4          1    LIG   1.0000
   6 C6           1.4736    -0.5258    -0.1893 C.3          1    LIG   0.0000
   7 C7           1.2989     0.9051     0.3075 C.3          1    LIG   0.0000
   8 C8           0.2038     1.6950    -0.4027 C.3          1    LIG   0.0000
   9 N9          -1.0206     0.9052    -0.6110 N.am         1    LIG   0.0000
  10 C10         -1.7867     1.1060    -1.7663 C.2          1    LIG   0.0000
  11 O11         -2.2665     0.1669    -2.3388 O.2          1    LIG   0.0000
  12 C12         -2.0102     2.5128    -2.2944 C.3          1    LIG   0.0000
  13 C13         -3.4982     2.8243    -2.3246 C.3          1    LIG   0.0000
  14 C14         -3.7264     4.2309    -2.8546 C.3          1    LIG   0.0000
  15 C15         -3.0199     5.2295    -1.9513 C.3          1    LIG   0.0000
  16 C16         -1.5296     4.9287    -1.9299 C.3          1    LIG   0.0000
  17 C17         -1.3075     3.5213    -1.3993 C.3          1    LIG   0.0000
  18 C18         -0.9713     5.0309    -3.3406 C.3          1    LIG   0.0000
  19 C19         -1.6709     4.0332    -4.2496 C.3          1    LIG   0.0000
  20 C20         -1.1163     4.1387    -5.6612 C.ar         1    LIG   0.0000
  21 C21         -0.1760     3.2100    -6.0961 C.ar         1    LIG   0.0000
  22 C22          0.3290     3.3105    -7.3884 C.ar         1    LIG   0.0000
  23 C23         -0.1016     4.3268    -8.2346 C.ar         1    LIG   0.0000
  24 C24          0.4557     4.4278    -9.6454 C.3          1    LIG   0.0000
  25 C25         -1.0429     5.2507    -7.7904 C.ar         1    LIG   0.0000
  26 C26         -1.5367     6.3741    -8.6875 C.3          1    LIG   0.0000
  27 C27         -1.5535     5.1585    -6.4995 C.ar         1    LIG   0.0000
  28 C28         -3.1615     4.3335    -4.2628 C.3          1    LIG   0.0000
  29 C29         -1.4562     2.6293    -3.7059 C.3          1    LIG   0.0000
  30 C30         -1.4535    -0.1036     0.3699 C.3          1    LIG   0.0000
  31 C31         -0.8201    -1.4665     0.1255 C.3          1    LIG   0.0000
  32 H            0.7025    -1.4184     1.4628 H            1    LIG   0.0000
  33 H           -4.7066     4.4283    -2.8711 H            1    LIG   0.0000
  34 H           -1.0642     5.5865    -1.3378 H            1    LIG   0.0000
  35 H            3.6025    -4.5626     2.4288 H            1    LIG   0.0000
  36 H            2.7282    -5.4853     1.4036 H            1    LIG   0.0000
  37 H            3.2923    -4.0325     0.9157 H            1    LIG   0.0000
  38 H           -0.1453    -3.5668     1.6090 H            1    LIG   0.0000
  39 H            0.5777    -4.7602     0.7607 H            1    LIG   0.0000
  40 H            2.0935    -2.8368     0.0109 H            1    LIG   0.0000
  41 H            0.6908    -3.1301    -0.7721 H            1    LIG   0.0000
  42 H            1.2713    -0.5412    -1.1685 H            1    LIG   0.0000
  43 H            2.4262    -0.7915    -0.0415 H            1    LIG   0.0000
  44 H            2.1651     1.3879     0.1788 H            1    LIG   0.0000
  45 H            1.0774     0.8720     1.2821 H            1    LIG   0.0000
  46 H           -0.0227     2.4967     0.1505 H            1    LIG   0.0000
  47 H            0.5490     1.9912    -1.2932 H            1    LIG   0.0000
  48 H           -3.8694     2.7554    -1.3986 H            1    LIG   0.0000
  49 H           -3.9617     2.1674    -2.9193 H            1    LIG   0.0000
  50 H           -3.1680     6.1556    -2.2984 H            1    LIG   0.0000
  51 H           -3.3875     5.1583    -1.0241 H            1    LIG   0.0000
  52 H           -0.3273     3.3239    -1.3834 H            1    LIG   0.0000
  53 H           -1.6760     3.4548    -0.4720 H            1    LIG   0.0000
  54 H           -1.1188     5.9565    -3.6890 H            1    LIG   0.0000
  55 H            0.0089     4.8332    -3.3241 H            1    LIG   0.0000
  56 H            0.1330     2.4793    -5.4872 H            1    LIG   0.0000
  57 H            1.0054     2.6483    -7.7108 H            1    LIG   0.0000
  58 H            1.1146     3.6911    -9.7970 H            1    LIG   0.0000
  59 H           -0.2914     4.3479   -10.3053 H            1    LIG   0.0000
  60 H            0.9103     5.3109    -9.7617 H            1    LIG   0.0000
  61 H           -2.2051     6.9279    -8.1910 H            1    LIG   0.0000
  62 H           -0.7641     6.9481    -8.9589 H            1    LIG   0.0000
  63 H           -1.9657     5.9854    -9.5029 H            1    LIG   0.0000
  64 H           -2.2299     5.8207    -6.1769 H            1    LIG   0.0000
  65 H           -3.6265     3.6751    -4.8547 H            1    LIG   0.0000
  66 H           -3.3097     5.2586    -4.6123 H            1    LIG   0.0000
  67 H           -0.4767     2.4281    -3.6924 H            1    LIG   0.0000
  68 H           -1.9233     1.9724    -4.2978 H            1    LIG   0.0000
  69 H           -2.4475    -0.1978     0.3152 H            1    LIG   0.0000
  70 H           -1.1981     0.2089     1.2849 H            1    LIG   0.0000
  71 H           -1.3068    -2.1443     0.6765 H            1    LIG   0.0000
  72 H           -0.9193    -1.6915    -0.8438 H            1    LIG   0.0000
@<TRIPOS>BOND
   1        1        2 1
   2        2        3 1
   3        3        4 1
   4        4        5 1
   5        5        6 1
   6        6        7 1
   7        7        8 1
   8        8        9 1
   9        9       10 am
  10       10       11 2
  11       10       12 1
  12       12       13 1
  13       13       14 1
  14       14       15 1
  15       15       16 1
  16       16       17 1
  17       17       12 1
  18       16       18 1
  19       18       19 1
  20       19       20 1
  21       20       21 ar
  22       21       22 ar
  23       22       23 ar
  24       23       24 1
  25       23       25 ar
  26       25       26 1
  27       25       27 ar
  28       27       20 ar
  29       19       28 1
  30       28       14 1
  31       19       29 1
  32       29       12 1
  33        9       30 1
  34       30       31 1
  35       31        5 1
  36        5       32 1
  37       14       33 1
  38       16       34 1
  39        1       35 1
  40        1       36 1
  41        1       37 1
  42        3       38 1
  43        3       39 1
  44        4       40 1
  45        4       41 1
  46        6       42 1
  47        6       43 1
  48        7       44 1
  49        7       45 1
  50        8       46 1
  51        8       47 1
  52       13       48 1
  53       13       49 1
  54       15       50 1
  55       15       51 1
  56       17       52 1
  57       17       53 1
  58       18       54 1
  59       18       55 1
  60       21       56 1
  61       22       57 1
  62       24       58 1
  63       24       59 1
  64       24       60 1
  65       26       61 1
  66       26       62 1
  67       26       63 1
  68       27       64 1
  69       28       65 1
  70       28       66 1
  71       29       67 1
  72       29       68 1
  73       30       69 1
  74       30       70 1
  75       31       71 1
  76       31       72 1

@<TRIPOS>MOLECULE

  72   76
SMALL
USER_CHARGES
@<TRIPOS>ATOM
   1 C1           2.9277    -4.5485     1.6909 C.3          1    LIG   0.0000
   2 O2           1.7352    -3.9306     2.1518 O.3          1    LIG   0.0000
   3 C3           0.7069    -3.8593     1.1751 C.3          1    LIG   0.0000
   4 C4           1.0977    -2.8584     0.1000 C.3          1    LIG   0.0000
   5 N5           0.6109    -1.5251     0.4728 N.4          1    LIG   1.0000
   6 C6           1.4736    -0.5258    -0.1893 C.3          1    LIG   0.0000
   7 C7           1.2989     0.9051     0.3075 C.3          1    LIG   0.0000
   8 C8           0.2038     1.6950    -0.4027 C.3          1    LIG   0.0000
   9 N9          -1.0206     0.9052    -0.6110 N.am         1    LIG   0.0000
  10 C10         -1.7867     1.1060    -1.7663 C.2          1    LIG   0.0000
  11 O11         -2.2665     0.1669    -2.3388 O.2          1    LIG   0.0000
  12 C12         -2.0102     2.5128    -2.2944 C.3          1    LIG   0.0000
  13 C13         -1.4501     2.6322    -3.7029 C.3          1    LIG   0.0000
  14 C14         -1.6700     4.0396    -4.2345 C.3          1    LIG   0.0000
  15 C15         -3.1601     4.3418    -4.2566 C.3          1    LIG   0.0000
  16 C16         -3.7203     4.2363    -2.8470 C.3          1    LIG   0.0000
  17 C17         -3.4977     2.8274    -2.3207 C.3          1    LIG   0.0000
  18 C18         -3.0099     5.2316    -1.9431 C.3          1    LIG   0.0000
  19 C19         -1.5194     4.9343    -1.9136 C.3          1    LIG   0.0000
  20 C20         -0.8083     5.9324    -1.0138 C.ar         1    LIG   0.0000
  21 C21         -1.5397     6.6330    -0.0599 C.ar         1    LIG   0.0000
  22 C22         -0.8850     7.5454     0.7610 C.ar         1    LIG   0.0000
  23 C23          0.4837     7.7539     0.6294 C.ar         1    LIG   0.0000
  24 C24          1.1903     8.7527     1.5317 C.3          1    LIG   0.0000
  25 C25          1.2067     7.0479    -0.3275 C.ar         1    LIG   0.0000
  26 C26          2.7036     7.2496    -0.4994 C.3          1    LIG   0.0000
  27 C27          0.5607     6.1334    -1.1534 C.ar         1    LIG   0.0000
  28 C28         -0.9646     5.0343    -3.3258 C.3          1    LIG   0.0000
  29 C29         -1.3045     3.5194    -1.3991 C.3          1    LIG   0.0000
  30 C30         -1.4535    -0.1036     0.3699 C.3          1    LIG   0.0000
  31 C31         -0.8201    -1.4665     0.1255 C.3          1    LIG   0.0000
  32 H            0.7025    -1.4184     1.4628 H            1    LIG   0.0000
  33 H           -1.2995     4.1100    -5.1607 H            1    LIG   0.0000
  34 H           -4.6998     4.4372    -2.8607 H            1    LIG   0.0000
  35 H            3.6025    -4.5626     2.4288 H            1    LIG   0.0000
  36 H            2.7282    -5.4853     1.4036 H            1    LIG   0.0000
  37 H            3.2923    -4.0325     0.9157 H            1    LIG   0.0000
  38 H           -0.1453    -3.5668     1.6090 H            1    LIG   0.0000
  39 H            0.5777    -4.7602     0.7607 H            1    LIG   0.0000
  40 H            2.0935    -2.8368     0.0109 H            1    LIG   0.0000
  41 H            0.6908    -3.1301    -0.7721 H            1    LIG   0.0000
  42 H            1.2713    -0.5412    -1.1685 H            1    LIG   0.0000
  43 H            2.4262    -0.7915    -0.0415 H            1    LIG   0.0000
  44 H            2.1651     1.3879     0.1788 H            1    LIG   0.0000
  45 H            1.0774     0.8720     1.2821 H            1    LIG   0.0000
  46 H           -0.0227     2.4967     0.1505 H            1    LIG   0.0000
  47 H            0.5490     1.9912    -1.2932 H            1    LIG   0.0000
  48 H           -1.9133     1.9771    -4.2998 H            1    LIG   0.0000
  49 H           -0.4701     2.4339    -3.6872 H            1    LIG   0.0000
  50 H           -3.3073     5.2674    -4.6053 H            1    LIG   0.0000
  51 H           -3.6247     3.6843    -4.8499 H            1    LIG   0.0000
  52 H           -3.8677     2.7573    -1.3943 H            1    LIG   0.0000
  53 H           -3.9642     2.1736    -2.9164 H            1    LIG   0.0000
  54 H           -3.1561     6.1578    -2.2908 H            1    LIG   0.0000
  55 H           -3.3803     5.1609    -1.0169 H            1    LIG   0.0000
  56 H           -2.5238     6.4824     0.0344 H            1    LIG   0.0000
  57 H           -1.4015     8.0544     1.4497 H            1    LIG   0.0000
  58 H            0.5267     9.1664     2.1551 H            1    LIG   0.0000
  59 H            1.8965     8.2824     2.0609 H            1    LIG   0.0000
  60 H            1.6124     9.4664     0.9728 H            1    LIG   0.0000
  61 H            3.0379     6.6565    -1.2319 H            1    LIG   0.0000
  62 H            2.8865     8.2043    -0.7339 H            1    LIG   0.0000
  63 H            3.1710     7.0206     0.3544 H            1    LIG   0.0000
  64 H            1.0769     5.6244    -1.8421 H            1    LIG   0.0000
  65 H            0.0148     4.8329    -3.3117 H            1    LIG   0.0000
  66 H           -1.1095     5.9606    -3.6735 H            1    LIG   0.0000
  67 H           -1.6705     3.4477    -0.4713 H            1    LIG   0.0000
  68 H           -0.3248     3.3190    -1.3874 H            1    LIG   0.0000
  69 H           -2.4475    -0.1978     0.3152 H            1    LIG   0.0000
  70 H           -1.1981     0.2089     1.2849 H            1    LIG   0.0000
  71 H           -1.3068    -2.1443     0.6765 H            1    LIG   0.0000
  72 H           -0.9193    -1.6915    -0.8438 H            1    LIG   0.0000
@<TRIPOS>BOND
   1        1        2 1
   2        2        3 1
   3        3        4 1
   4        4        5 1
   5        5        6 1
   6        6        7 1
   7        7        8 1
   8        8        9 1
   9        9       10 am
  10       10       11 2
  11       10       12 1
  12       12       13 1
  13       13       14 1
  14       14       15 1
  15       15       16 1
  16       16       17 1
  17       17       12 1
  18       16       18 1
  19       18       19 1
  20       19       20 1
  21       20       21 ar
  22       21       22 ar
  23       22       23 ar
  24       23       24 1
  25       23       25 ar
  26       25       26 1
  27       25       27 ar
  28       27       20 ar
  29       19       28 1
  30       28       14 1
  31       19       29 1
  32       29       12 1
  33        9       30 1
  34       30       31 1
  35       31        5 1
  36        5       32 1
  37       14       33 1
  38       16       34 1
  39        1       35 1
  40        1       36 1
  41        1       37 1
  42        3       38 1
  43        3       39 1
  44        4       40 1
  45        4       41 1
  46        6       42 1
  47        6       43 1
  48        7       44 1
  49        7       45 1
  50        8       46 1
  51        8       47 1
  52       13       48 1
  53       13       49 1
  54       15       50 1
  55       15       51 1
  56       17       52 1
  57       17       53 1
  58       18       54 1
  59       18       55 1
  60       21       56 1
  61       22       57 1
  62       24       58 1
  63       24       59 1
  64       24       60 1
  65       26       61 1
  66       26       62 1
  67       26       63 1
  68       27       64 1
  69       28       65 1
  70       28       66 1
  71       29       67 1
  72       29       68 1
  73       30       69 1
  74       30       70 1
  75       31       71 1
  76       31       72 1

@<TRIPOS>MOLECULE

  72   76
SMALL
USER_CHARGES
@<TRIPOS>ATOM
   1 C1           2.9277    -4.5485     1.6909 C.3          1    LIG   0.0000
   2 O2           1.7352    -3.9306     2.1518 O.3          1    LIG   0.0000
   3 C3           0.7069    -3.8593     1.1751 C.3          1    LIG   0.0000
   4 C4           1.0977    -2.8584     0.1000 C.3          1    LIG   0.0000
   5 N5           0.6109    -1.5251     0.4728 N.4          1    LIG   1.0000
   6 C6           1.4736    -0.5258    -0.1893 C.3          1    LIG   0.0000
   7 C7           1.2989     0.9051     0.3075 C.3          1    LIG   0.0000
   8 C8           0.2038     1.6950    -0.4027 C.3          1    LIG   0.0000
   9 N9          -1.0206     0.9052    -0.6110 N.am         1    LIG   0.0000
  10 C10         -1.7867     1.1060    -1.7663 C.2          1    LIG   0.0000
  11 O11         -2.2665     0.1669    -2.3388 O.2          1    LIG   0.0000
  12 C12         -2.0103     2.5130    -2.2944 C.3          1    LIG   0.0000
  13 C13         -1.4504     2.6400    -3.7025 C.3          1    LIG   0.0000
  14 C14         -1.6641     4.0488    -4.2335 C.3          1    LIG   0.0000
  15 C15         -0.9577     5.0409    -3.3227 C.3          1    LIG   0.0000
  16 C16         -1.5181     4.9313    -1.9134 C.3          1    LIG   0.0000
  17 C17         -1.3062     3.5172    -1.3956 C.3          1    LIG   0.0000
  18 C18         -3.0095     5.2271    -1.9370 C.3          1    LIG   0.0000
  19 C19         -3.7283     4.2381    -2.8407 C.3          1    LIG   0.0000
  20 C20         -5.2169     4.5456    -2.8686 C.ar         1    LIG   0.0000
  21 C21         -5.6601     5.8082    -2.4874 C.ar         1    LIG   0.0000
  22 C22         -7.0231     6.0851    -2.5141 C.ar         1    LIG   0.0000
  23 C23         -7.9307     5.1116    -2.9174 C.ar         1    LIG   0.0000
  24 C24         -9.4182     5.4241    -2.9440 C.3          1    LIG   0.0000
  25 C25         -7.4774     3.8517    -3.2973 C.ar         1    LIG   0.0000
  26 C26         -8.4403     2.7635    -3.7440 C.3          1    LIG   0.0000
  27 C27         -6.1162     3.5652    -3.2736 C.ar         1    LIG   0.0000
  28 C28         -3.1552     4.3474    -4.2450 C.3          1    LIG   0.0000
  29 C29         -3.4973     2.8289    -2.3185 C.3          1    LIG   0.0000
  30 C30         -1.4535    -0.1036     0.3699 C.3          1    LIG   0.0000
  31 C31         -0.8201    -1.4665     0.1255 C.3          1    LIG   0.0000
  32 H            0.7025    -1.4184     1.4628 H            1    LIG   0.0000
  33 H           -1.2973     4.1203    -5.1611 H            1    LIG   0.0000
  34 H           -1.0540     5.5834    -1.3139 H            1    LIG   0.0000
  35 H            3.6025    -4.5626     2.4288 H            1    LIG   0.0000
  36 H            2.7282    -5.4853     1.4036 H            1    LIG   0.0000
  37 H            3.2923    -4.0325     0.9157 H            1    LIG   0.0000
  38 H           -0.1453    -3.5668     1.6090 H            1    LIG   0.0000
  39 H            0.5777    -4.7602     0.7607 H            1    LIG   0.0000
  40 H            2.0935    -2.8368     0.0109 H            1    LIG   0.0000
  41 H            0.6908    -3.1301    -0.7721 H            1    LIG   0.0000
  42 H            1.2713    -0.5412    -1.1685 H            1    LIG   0.0000
  43 H            2.4262    -0.7915    -0.0415 H            1    LIG   0.0000
  44 H            2.1651     1.3879     0.1788 H            1    LIG   0.0000
  45 H            1.0774     0.8720     1.2821 H            1    LIG   0.0000
  46 H           -0.0227     2.4967     0.1505 H            1    LIG   0.0000
  47 H            0.5490     1.9912    -1.2932 H            1    LIG   0.0000
  48 H           -1.9151     1.9881    -4.3018 H            1    LIG   0.0000
  49 H           -0.4710     2.4389    -3.6869 H            1    LIG   0.0000
  50 H            0.0217     4.8393    -3.3077 H            1    LIG   0.0000
  51 H           -1.1018     5.9688    -3.6666 H            1    LIG   0.0000
  52 H           -0.3269     3.3153    -1.3796 H            1    LIG   0.0000
  53 H           -1.6763     3.4465    -0.4693 H            1    LIG   0.0000
  54 H           -3.3755     5.1527    -1.0093 H            1    LIG   0.0000
  55 H           -3.1567     6.1548    -2.2800 H            1    LIG   0.0000
  56 H           -5.0069     6.5078    -2.1978 H            1    LIG   0.0000
  57 H           -7.3521     6.9893    -2.2419 H            1    LIG   0.0000
  58 H           -9.5663     6.3662    -2.6431 H            1    LIG   0.0000
  59 H           -9.7656     5.3130    -3.8751 H            1    LIG   0.0000
  60 H           -9.9012     4.7986    -2.3311 H            1    LIG   0.0000
  61 H           -7.9260     1.9373    -3.9741 H            1    LIG   0.0000
  62 H           -9.0817     2.5615    -3.0038 H            1    LIG   0.0000
  63 H           -8.9466     3.0757    -4.5479 H            1    LIG   0.0000
  64 H           -5.7869     2.6611    -3.5457 H            1    LIG   0.0000
  65 H           -3.3030     5.2743    -4.5900 H            1    LIG   0.0000
  66 H           -3.6179     3.6918    -4.8417 H            1    LIG   0.0000
  67 H           -3.9639     2.1754    -2.9146 H            1    LIG   0.0000
  68 H           -3.8653     2.7560    -1.3915 H            1    LIG   0.0000
  69 H           -2.4475    -0.1978     0.3152 H            1    LIG   0.0000
  70 H           -1.1981     0.2089     1.2849 H            1    LIG   0.0000
  71 H           -1.3068    -2.1443     0.6765 H            1    LIG   0.0000
  72 H           -0.9193    -1.6915    -0.8438 H            1    LIG   0.0000
@<TRIPOS>BOND
   1        1        2 1
   2        2        3 1
   3        3        4 1
   4        4        5 1
   5        5        6 1
   6        6        7 1
   7        7        8 1
   8        8        9 1
   9        9       10 am
  10       10       11 2
  11       10       12 1
  12       12       13 1
  13       13       14 1
  14       14       15 1
  15       15       16 1
  16       16       17 1
  17       17       12 1
  18       16       18 1
  19       18       19 1
  20       19       20 1
  21       20       21 ar
  22       21       22 ar
  23       22       23 ar
  24       23       24 1
  25       23       25 ar
  26       25       26 1
  27       25       27 ar
  28       27       20 ar
  29       19       28 1
  30       28       14 1
  31       19       29 1
  32       29       12 1
  33        9       30 1
  34       30       31 1
  35       31        5 1
  36        5       32 1
  37       14       33 1
  38       16       34 1
  39        1       35 1
  40        1       36 1
  41        1       37 1
  42        3       38 1
  43        3       39 1
  44        4       40 1
  45        4       41 1
  46        6       42 1
  47        6       43 1
  48        7       44 1
  49        7       45 1
  50        8       46 1
  51        8       47 1
  52       13       48 1
  53       13       49 1
  54       15       50 1
  55       15       51 1
  56       17       52 1
  57       17       53 1
  58       18       54 1
  59       18       55 1
  60       21       56 1
  61       22       57 1
  62       24       58 1
  63       24       59 1
  64       24       60 1
  65       26       61 1
  66       26       62 1
  67       26       63 1
  68       27       64 1
  69       28       65 1
  70       28       66 1
  71       29       67 1
  72       29       68 1
  73       30       69 1
  74       30       70 1
  75       31       71 1
  76       31       72 1

@<TRIPOS>MOLECULE

  72   76
SMALL
USER_CHARGES
@<TRIPOS>ATOM
   1 C1           2.9277    -4.5485     1.6909 C.3          1    LIG   0.0000
   2 O2           1.7352    -3.9306     2.1518 O.3          1    LIG   0.0000
   3 C3           0.7069    -3.8593     1.1751 C.3          1    LIG   0.0000
   4 C4           1.0977    -2.8584     0.1000 C.3          1    LIG   0.0000
   5 N5           0.6109    -1.5251     0.4728 N.4          1    LIG   1.0000
   6 C6           1.4736    -0.5258    -0.1893 C.3          1    LIG   0.0000
   7 C7           1.2989     0.9051     0.3075 C.3          1    LIG   0.0000
   8 C8           0.2038     1.6950    -0.4027 C.3          1    LIG   0.0000
   9 N9          -1.0206     0.9052    -0.6110 N.am         1    LIG   0.0000
  10 C10         -1.7867     1.1060    -1.7663 C.2          1    LIG   0.0000
  11 O11         -2.2665     0.1669    -2.3388 O.2          1    LIG   0.0000
  12 C12         -2.0103     2.5130    -2.2944 C.3          1    LIG   0.0000
  13 C13         -1.3150     3.5263    -1.3989 C.3          1    LIG   0.0000
  14 C14         -1.5421     4.9374    -1.9182 C.3          1    LIG   0.0000
  15 C15         -3.0343     5.2299    -1.9404 C.3          1    LIG   0.0000
  16 C16         -3.7390     4.2294    -2.8430 C.3          1    LIG   0.0000
  17 C17         -3.4989     2.8220    -2.3193 C.3          1    LIG   0.0000
  18 C18         -3.1741     4.3321    -4.2512 C.3          1    LIG   0.0000
  19 C19         -1.6828     4.0366    -4.2431 C.3          1    LIG   0.0000
  20 C20         -1.1220     4.1514    -5.6516 C.ar         1    LIG   0.0000
  21 C21         -1.9741     4.4832    -6.7003 C.ar         1    LIG   0.0000
  22 C22         -1.4567     4.5869    -7.9875 C.ar         1    LIG   0.0000
  23 C23         -0.1045     4.3619    -8.2221 C.ar         1    LIG   0.0000
  24 C24          0.4515     4.4784    -9.6322 C.3          1    LIG   0.0000
  25 C25          0.7397     4.0310    -7.1664 C.ar         1    LIG   0.0000
  26 C26          2.2227     3.7785    -7.3854 C.3          1    LIG   0.0000
  27 C27          0.2316     3.9246    -5.8756 C.ar         1    LIG   0.0000
  28 C28         -0.9876     5.0350    -3.3309 C.3          1    LIG   0.0000
  29 C29         -1.4572     2.6322    -3.7057 C.3          1    LIG   0.0000
  30 C30         -1.4535    -0.1036     0.3699 C.3          1    LIG   0.0000
  31 C31         -0.8201    -1.4665     0.1255 C.3          1    LIG   0.0000
  32 H            0.7025    -1.4184     1.4628 H            1    LIG   0.0000
  33 H           -1.0770     5.5952    -1.3257 H            1    LIG   0.0000
  34 H           -4.7203     4.4211    -2.8581 H            1    LIG   0.0000
  35 H            3.6025    -4.5626     2.4288 H            1    LIG   0.0000
  36 H            2.7282    -5.4853     1.4036 H            1    LIG   0.0000
  37 H            3.2923    -4.0325     0.9157 H            1    LIG   0.0000
  38 H           -0.1453    -3.5668     1.6090 H            1    LIG   0.0000
  39 H            0.5777    -4.7602     0.7607 H            1    LIG   0.0000
  40 H            2.0935    -2.8368     0.0109 H            1    LIG   0.0000
  41 H            0.6908    -3.1301    -0.7721 H            1    LIG   0.0000
  42 H            1.2713    -0.5412    -1.1685 H            1    LIG   0.0000
  43 H            2.4262    -0.7915    -0.0415 H            1    LIG   0.0000
  44 H            2.1651     1.3879     0.1788 H            1    LIG   0.0000
  45 H            1.0774     0.8720     1.2821 H            1    LIG   0.0000
  46 H           -0.0227     2.4967     0.1505 H            1    LIG   0.0000
  47 H            0.5490     1.9912    -1.2932 H            1    LIG   0.0000
  48 H           -0.3337     3.3346    -1.3845 H            1    LIG   0.0000
  49 H           -1.6826     3.4534    -0.4718 H            1    LIG   0.0000
  50 H           -3.4012     5.1569    -1.0131 H            1    LIG   0.0000
  51 H           -3.1866     6.1553    -2.2873 H            1    LIG   0.0000
  52 H           -3.8663     2.7483    -1.3921 H            1    LIG   0.0000
  53 H           -3.9619     2.1654    -2.9145 H            1    LIG   0.0000
  54 H           -3.6382     3.6721    -4.8420 H            1    LIG   0.0000
  55 H           -3.3255     5.2567    -4.6010 H            1    LIG   0.0000
  56 H           -2.9462     4.6452    -6.5308 H            1    LIG   0.0000
  57 H           -2.0606     4.8246    -8.7483 H            1    LIG   0.0000
  58 H           -0.2861     4.7211   -10.2624 H            1    LIG   0.0000
  59 H            1.1563     5.1874    -9.6551 H            1    LIG   0.0000
  60 H            0.8499     3.6032    -9.9067 H            1    LIG   0.0000
  61 H            2.6556     3.5561    -6.5119 H            1    LIG   0.0000
  62 H            2.3407     3.0147    -8.0199 H            1    LIG   0.0000
  63 H            2.6474     4.5988    -7.7686 H            1    LIG   0.0000
  64 H            0.8352     3.6869    -5.1146 H            1    LIG   0.0000
  65 H           -1.1367     5.9600    -3.6803 H            1    LIG   0.0000
  66 H           -0.0071     4.8390    -3.3143 H            1    LIG   0.0000
  67 H           -0.4765     2.4372    -3.6934 H            1    LIG   0.0000
  68 H           -1.9206     1.9736    -4.2985 H            1    LIG   0.0000
  69 H           -2.4475    -0.1978     0.3152 H            1    LIG   0.0000
  70 H           -1.1981     0.2089     1.2849 H            1    LIG   0.0000
  71 H           -1.3068    -2.1443     0.6765 H            1    LIG   0.0000
  72 H           -0.9193    -1.6915    -0.8438 H            1    LIG   0.0000
@<TRIPOS>BOND
   1        1        2 1
   2        2        3 1
   3        3        4 1
   4        4        5 1
   5        5        6 1
   6        6        7 1
   7        7        8 1
   8        8        9 1
   9        9       10 am
  10       10       11 2
  11       10       12 1
  12       12       13 1
  13       13       14 1
  14       14       15 1
  15       15       16 1
  16       16       17 1
  17       17       12 1
  18       16       18 1
  19       18       19 1
  20       19       20 1
  21       20       21 ar
  22       21       22 ar
  23       22       23 ar
  24       23       24 1
  25       23       25 ar
  26       25       26 1
  27       25       27 ar
  28       27       20 ar
  29       19       28 1
  30       28       14 1
  31       19       29 1
  32       29       12 1
  33        9       30 1
  34       30       31 1
  35       31        5 1
  36        5       32 1
  37       14       33 1
  38       16       34 1
  39        1       35 1
  40        1       36 1
  41        1       37 1
  42        3       38 1
  43        3       39 1
  44        4       40 1
  45        4       41 1
  46        6       42 1
  47        6       43 1
  48        7       44 1
  49        7       45 1
  50        8       46 1
  51        8       47 1
  52       13       48 1
  53       13       49 1
  54       15       50 1
  55       15       51 1
  56       17       52 1
  57       17       53 1
  58       18       54 1
  59       18       55 1
  60       21       56 1
  61       22       57 1
  62       24       58 1
  63       24       59 1
  64       24       60 1
  65       26       61 1
  66       26       62 1
  67       26       63 1
  68       27       64 1
  69       28       65 1
  70       28       66 1
  71       29       67 1
  72       29       68 1
  73       30       69 1
  74       30       70 1
  75       31       71 1
  76       31       72 1

@<TRIPOS>MOLECULE

  72   76
SMALL
USER_CHARGES
@<TRIPOS>ATOM
   1 C1           2.9277    -4.5485     1.6909 C.3          1    LIG   0.0000
   2 O2           1.7352    -3.9306     2.1518 O.3          1    LIG   0.0000
   3 C3           0.7069    -3.8593     1.1751 C.3          1    LIG   0.0000
   4 C4           1.0977    -2.8584     0.1000 C.3          1    LIG   0.0000
   5 N5           0.6109    -1.5251     0.4728 N.4          1    LIG   1.0000
   6 C6           1.4736    -0.5258    -0.1893 C.3          1    LIG   0.0000
   7 C7           1.2989     0.9051     0.3075 C.3          1    LIG   0.0000
   8 C8           0.2038     1.6950    -0.4027 C.3          1    LIG   0.0000
   9 N9          -1.0206     0.9052    -0.6110 N.am         1    LIG   0.0000
  10 C10         -1.7867     1.1060    -1.7663 C.2          1    LIG   0.0000
  11 O11         -2.2665     0.1669    -2.3388 O.2          1    LIG   0.0000
  12 C12         -2.0103     2.5130    -2.2944 C.3          1    LIG   0.0000
  13 C13         -3.4969     2.8304    -2.3292 C.3          1    LIG   0.0000
  14 C14         -3.7274     4.2349    -2.8648 C.3          1    LIG   0.0000
  15 C15         -3.1614     4.3340    -4.2728 C.3          1    LIG   0.0000
  16 C16         -1.6717     4.0301    -4.2487 C.3          1    LIG   0.0000
  17 C17         -1.4525     2.6271    -3.7044 C.3          1    LIG   0.0000
  18 C18         -0.9665     5.0249    -3.3401 C.3          1    LIG   0.0000
  19 C19         -1.5202     4.9318    -1.9272 C.3          1    LIG   0.0000
  20 C20         -0.8189     5.9359    -1.0264 C.ar         1    LIG   0.0000
  21 C21          0.1722     6.7545    -1.5588 C.ar         1    LIG   0.0000
  22 C22          0.8114     7.6716    -0.7309 C.ar         1    LIG   0.0000
  23 C23          0.4632     7.7687     0.6120 C.ar         1    LIG   0.0000
  24 C24          1.1670     8.7746     1.5086 C.3          1    LIG   0.0000
  25 C25         -0.5300     6.9458     1.1350 C.ar         1    LIG   0.0000
  26 C26         -0.9368     7.0244     2.5976 C.3          1    LIG   0.0000
  27 C27         -1.1747     6.0253     0.3150 C.ar         1    LIG   0.0000
  28 C28         -3.0115     5.2273    -1.9620 C.3          1    LIG   0.0000
  29 C29         -1.3056     3.5215    -1.4011 C.3          1    LIG   0.0000
  30 C30         -1.4535    -0.1036     0.3699 C.3          1    LIG   0.0000
  31 C31         -0.8201    -1.4665     0.1255 C.3          1    LIG   0.0000
  32 H            0.7025    -1.4184     1.4628 H            1    LIG   0.0000
  33 H           -4.7070     4.4354    -2.8788 H            1    LIG   0.0000
  34 H           -1.2989     4.0952    -5.1744 H            1    LIG   0.0000
  35 H            3.6025    -4.5626     2.4288 H            1    LIG   0.0000
  36 H            2.7282    -5.4853     1.4036 H            1    LIG   0.0000
  37 H            3.2923    -4.0325     0.9157 H            1    LIG   0.0000
  38 H           -0.1453    -3.5668     1.6090 H            1    LIG   0.0000
  39 H            0.5777    -4.7602     0.7607 H            1    LIG   0.0000
  40 H            2.0935    -2.8368     0.0109 H            1    LIG   0.0000
  41 H            0.6908    -3.1301    -0.7721 H            1    LIG   0.0000
  42 H            1.2713    -0.5412    -1.1685 H            1    LIG   0.0000
  43 H            2.4262    -0.7915    -0.0415 H            1    LIG   0.0000
  44 H            2.1651     1.3879     0.1788 H            1    LIG   0.0000
  45 H            1.0774     0.8720     1.2821 H            1    LIG   0.0000
  46 H           -0.0227     2.4967     0.1505 H            1    LIG   0.0000
  47 H            0.5490     1.9912    -1.2932 H            1    LIG   0.0000
  48 H           -3.8693     2.7658    -1.4034 H            1    LIG   0.0000
  49 H           -3.9606     2.1717    -2.9217 H            1    LIG   0.0000
  50 H           -3.6256     3.6752    -4.8649 H            1    LIG   0.0000
  51 H           -3.3064     5.2586    -4.6251 H            1    LIG   0.0000
  52 H           -1.9158     1.9678    -4.2965 H            1    LIG   0.0000
  53 H           -0.4724     2.4294    -3.6881 H            1    LIG   0.0000
  54 H            0.0125     4.8217    -3.3250 H            1    LIG   0.0000
  55 H           -1.1093     5.9507    -3.6903 H            1    LIG   0.0000
  56 H            0.4220     6.6843    -2.5246 H            1    LIG   0.0000
  57 H            1.5254     8.2644    -1.1035 H            1    LIG   0.0000
  58 H            1.8461     9.2787     0.9751 H            1    LIG   0.0000
  59 H            0.4957     9.4142     1.8832 H            1    LIG   0.0000
  60 H            1.6221     8.2926     2.2573 H            1    LIG   0.0000
  61 H           -1.6604     6.3583     2.7786 H            1    LIG   0.0000
  62 H           -0.1457     6.8225     3.1750 H            1    LIG   0.0000
  63 H           -1.2721     7.9443     2.8014 H            1    LIG   0.0000
  64 H           -1.8887     5.4323     0.6873 H            1    LIG   0.0000
  65 H           -3.1558     6.1534    -2.3105 H            1    LIG   0.0000
  66 H           -3.3828     5.1579    -1.0361 H            1    LIG   0.0000
  67 H           -1.6745     3.4555    -0.4739 H            1    LIG   0.0000
  68 H           -0.3261     3.3207    -1.3853 H            1    LIG   0.0000
  69 H           -2.4475    -0.1978     0.3152 H            1    LIG   0.0000
  70 H           -1.1981     0.2089     1.2849 H            1    LIG   0.0000
  71 H           -1.3068    -2.1443     0.6765 H            1    LIG   0.0000
  72 H           -0.9193    -1.6915    -0.8438 H            1    LIG   0.0000
@<TRIPOS>BOND
   1        1        2 1
   2        2        3 1
   3        3        4 1
   4        4        5 1
   5        5        6 1
   6        6        7 1
   7        7        8 1
   8        8        9 1
   9        9       10 am
  10       10       11 2
  11       10       12 1
  12       12       13 1
  13       13       14 1
  14       14       15 1
  15       15       16 1
  16       16       17 1
  17       17       12 1
  18       16       18 1
  19       18       19 1
  20       19       20 1
  21       20       21 ar
  22       21       22 ar
  23       22       23 ar
  24       23       24 1
  25       23       25 ar
  26       25       26 1
  27       25       27 ar
  28       27       20 ar
  29       19       28 1
  30       28       14 1
  31       19       29 1
  32       29       12 1
  33        9       30 1
  34       30       31 1
  35       31        5 1
  36        5       32 1
  37       14       33 1
  38       16       34 1
  39        1       35 1
  40        1       36 1
  41        1       37 1
  42        3       38 1
  43        3       39 1
  44        4       40 1
  45        4       41 1
  46        6       42 1
  47        6       43 1
  48        7       44 1
  49        7       45 1
  50        8       46 1
  51        8       47 1
  52       13       48 1
  53       13       49 1
  54       15       50 1
  55       15       51 1
  56       17       52 1
  57       17       53 1
  58       18       54 1
  59       18       55 1
  60       21       56 1
  61       22       57 1
  62       24       58 1
  63       24       59 1
  64       24       60 1
  65       26       61 1
  66       26       62 1
  67       26       63 1
  68       27       64 1
  69       28       65 1
  70       28       66 1
  71       29       67 1
  72       29       68 1
  73       30       69 1
  74       30       70 1
  75       31       71 1
  76       31       72 1

@<TRIPOS>MOLECULE

  72   76
SMALL
USER_CHARGES
@<TRIPOS>ATOM
   1 C1           1.0945    -4.6505    -0.3301 C.3          1    LIG   0.0000
   2 O2          -0.1545    -3.9759    -0.3655 O.3          1    LIG   0.0000
   3 C3          -0.7320    -3.7624     0.9141 C.3          1    LIG   0.0000
   4 C4          -1.5696    -2.4943     0.8867 C.3          1    LIG   0.0000
   5 N5          -0.8755    -1.4655     0.0986 N.4          1    LIG   1.0000
   6 C6          -1.5199    -0.1621     0.3462 C.3          1    LIG   0.0000
   7 C7          -1.1143     0.9230    -0.6425 C.3          1    LIG   0.0000
   8 C8           0.1161     1.7287    -0.2405 C.3          1    LIG   0.0000
   9 N9           1.1826     0.8620     0.2906 N.am         1    LIG   0.0000
  10 C10          2.0074     1.2866     1.3440 C.2          1    LIG   0.0000
  11 O11          2.3176     0.5170     2.2108 O.2          1    LIG   0.0000
  12 C12          2.5072     2.7206     1.3868 C.3          1    LIG   0.0000
  13 C13          1.9851     3.4872     0.1819 C.3          1    LIG   0.0000
  14 C14          2.4848     4.9226     0.2198 C.3          1    LIG   0.0000
  15 C15          1.9956     5.5919     1.4946 C.3          1    LIG   0.0000
  16 C16          2.5275     4.8352     2.7015 C.3          1    LIG   0.0000
  17 C17          2.0247     3.4010     2.6582 C.3          1    LIG   0.0000
  18 C18          4.0478     4.8390     2.6728 C.3          1    LIG   0.0000
  19 C19          4.5449     4.1687     1.4021 C.3          1    LIG   0.0000
  20 C20          6.0649     4.1768     1.3710 C.ar         1    LIG   0.0000
  21 C21          6.7708     4.3453     2.5580 C.ar         1    LIG   0.0000
  22 C22          8.1615     4.3523     2.5248 C.ar         1    LIG   0.0000
  23 C23          8.8370     4.1925     1.3196 C.ar         1    LIG   0.0000
  24 C24         10.3569     4.2009     1.2937 C.3          1    LIG   0.0000
  25 C25          8.1218     4.0242     0.1376 C.ar         1    LIG   0.0000
  26 C26          8.8264     3.8463    -1.1976 C.3          1    LIG   0.0000
  27 C27          6.7307     4.0160     0.1607 C.ar         1    LIG   0.0000
  28 C28          4.0054     4.9244     0.1979 C.3          1    LIG   0.0000
  29 C29          4.0276     2.7393     1.3586 C.3          1    LIG   0.0000
  30 C30          1.3985    -0.4778    -0.2789 C.3          1    LIG   0.0000
  31 C31          0.5605    -1.5414     0.4167 C.3          1    LIG   0.0000
  32 H           -0.9900    -1.6880    -0.8696 H            1    LIG   0.0000
  33 H            2.1372     5.4200    -0.5750 H            1    LIG   0.0000
  34 H            2.2078     5.2763     3.5401 H            1    LIG   0.0000
  35 H            1.4382    -4.7647    -1.2623 H            1    LIG   0.0000
  36 H            1.7484    -4.1135     0.2028 H            1    LIG   0.0000
  37 H            0.9765    -5.5485     0.0939 H            1    LIG   0.0000
  38 H           -0.0064    -3.6679     1.5957 H            1    LIG   0.0000
  39 H           -1.3132    -4.5407     1.1516 H            1    LIG   0.0000
  40 H           -2.4576    -2.6902     0.4707 H            1    LIG   0.0000
  41 H           -1.7047    -2.1638     1.8208 H            1    LIG   0.0000
  42 H           -1.2729     0.1418     1.2664 H            1    LIG   0.0000
  43 H           -2.5107    -0.2848     0.2904 H            1    LIG   0.0000
  44 H           -1.8819     1.5562    -0.7412 H            1    LIG   0.0000
  45 H           -0.9265     0.4871    -1.5227 H            1    LIG   0.0000
  46 H            0.4623     2.2144    -1.0431 H            1    LIG   0.0000
  47 H           -0.1447     2.3902     0.4626 H            1    LIG   0.0000
  48 H            0.9852     3.4845     0.1960 H            1    LIG   0.0000
  49 H            2.3078     3.0465    -0.6557 H            1    LIG   0.0000
  50 H            2.3237     6.5361     1.5222 H            1    LIG   0.0000
  51 H            0.9958     5.5858     1.5116 H            1    LIG   0.0000
  52 H            2.3729     2.9037     3.4528 H            1    LIG   0.0000
  53 H            1.0249     3.3996     2.6759 H            1    LIG   0.0000
  54 H            4.3773     5.7827     2.7002 H            1    LIG   0.0000
  55 H            4.3953     4.3414     3.4676 H            1    LIG   0.0000
  56 H            6.2845     4.4599     3.4243 H            1    LIG   0.0000
  57 H            8.6785     4.4730     3.3722 H            1    LIG   0.0000
  58 H           10.7054     4.3314     2.2219 H            1    LIG   0.0000
  59 H           10.6890     3.3296     0.9325 H            1    LIG   0.0000
  60 H           10.6762     4.9473     0.7098 H            1    LIG   0.0000
  61 H            8.1455     3.7411    -1.9224 H            1    LIG   0.0000
  62 H            9.3920     4.6493    -1.3856 H            1    LIG   0.0000
  63 H            9.4052     3.0316    -1.1632 H            1    LIG   0.0000
  64 H            6.2136     3.8954    -0.6866 H            1    LIG   0.0000
  65 H            4.3249     4.4827    -0.6404 H            1    LIG   0.0000
  66 H            4.3356     5.8680     0.2242 H            1    LIG   0.0000
  67 H            4.3774     2.2387     2.1505 H            1    LIG   0.0000
  68 H            4.3464     2.2996     0.5189 H            1    LIG   0.0000
  69 H            2.3649    -0.7162    -0.1834 H            1    LIG   0.0000
  70 H            1.1541    -0.4586    -1.2484 H            1    LIG   0.0000
  71 H            0.8981    -2.4408     0.1391 H            1    LIG   0.0000
  72 H            0.6710    -1.4342     1.4047 H            1    LIG   0.0000
@<TRIPOS>BOND
   1        1        2 1
   2        2        3 1
   3        3        4 1
   4        4        5 1
   5        5        6 1
   6        6        7 1
   7        7        8 1
   8        8        9 1
   9        9       10 am
  10       10       11 2
  11       10       12 1
  12       12       13 1
  13       13       14 1
  14       14       15 1
  15       15       16 1
  16       16       17 1
  17       17       12 1
  18       16       18 1
  19       18       19 1
  20       19       20 1
  21       20       21 ar
  22       21       22 ar
  23       22       23 ar
  24       23       24 1
  25       23       25 ar
  26       25       26 1
  27       25       27 ar
  28       27       20 ar
  29       19       28 1
  30       28       14 1
  31       19       29 1
  32       29       12 1
  33        9       30 1
  34       30       31 1
  35       31        5 1
  36        5       32 1
  37       14       33 1
  38       16       34 1
  39        1       35 1
  40        1       36 1
  41        1       37 1
  42        3       38 1
  43        3       39 1
  44        4       40 1
  45        4       41 1
  46        6       42 1
  47        6       43 1
  48        7       44 1
  49        7       45 1
  50        8       46 1
  51        8       47 1
  52       13       48 1
  53       13       49 1
  54       15       50 1
  55       15       51 1
  56       17       52 1
  57       17       53 1
  58       18       54 1
  59       18       55 1
  60       21       56 1
  61       22       57 1
  62       24       58 1
  63       24       59 1
  64       24       60 1
  65       26       61 1
  66       26       62 1
  67       26       63 1
  68       27       64 1
  69       28       65 1
  70       28       66 1
  71       29       67 1
  72       29       68 1
  73       30       69 1
  74       30       70 1
  75       31       71 1
  76       31       72 1

@<TRIPOS>MOLECULE

  72   76
SMALL
USER_CHARGES
@<TRIPOS>ATOM
   1 C1           1.0945    -4.6505    -0.3301 C.3          1    LIG   0.0000
   2 O2          -0.1545    -3.9759    -0.3655 O.3          1    LIG   0.0000
   3 C3          -0.7320    -3.7624     0.9141 C.3          1    LIG   0.0000
   4 C4          -1.5696    -2.4943     0.8867 C.3          1    LIG   0.0000
   5 N5          -0.8755    -1.4655     0.0986 N.4          1    LIG   1.0000
   6 C6          -1.5199    -0.1621     0.3462 C.3          1    LIG   0.0000
   7 C7          -1.1143     0.9230    -0.6425 C.3          1    LIG   0.0000
   8 C8           0.1161     1.7287    -0.2405 C.3          1    LIG   0.0000
   9 N9           1.1826     0.8620     0.2906 N.am         1    LIG   0.0000
  10 C10          2.0074     1.2866     1.3440 C.2          1    LIG   0.0000
  11 O11          2.3176     0.5170     2.2108 O.2          1    LIG   0.0000
  12 C12          2.5076     2.7218     1.3869 C.3          1    LIG   0.0000
  13 C13          2.0180     3.3992     2.6576 C.3          1    LIG   0.0000
  14 C14          2.5275     4.8299     2.7348 C.3          1    LIG   0.0000
  15 C15          4.0478     4.8207     2.7094 C.3          1    LIG   0.0000
  16 C16          4.5561     4.1655     1.4349 C.3          1    LIG   0.0000
  17 C17          4.0285     2.7403     1.3735 C.3          1    LIG   0.0000
  18 C18          4.0148     4.9378     0.2419 C.3          1    LIG   0.0000
  19 C19          2.4939     4.9466     0.2510 C.3          1    LIG   0.0000
  20 C20          1.9605     5.7200    -0.9443 C.ar         1    LIG   0.0000
  21 C21          1.5147     5.0240    -2.0635 C.ar         1    LIG   0.0000
  22 C22          1.0277     5.7357    -3.1551 C.ar         1    LIG   0.0000
  23 C23          0.9869     7.1255    -3.1269 C.ar         1    LIG   0.0000
  24 C24          0.4523     7.8943    -4.3245 C.3          1    LIG   0.0000
  25 C25          1.4348     7.8126    -2.0025 C.ar         1    LIG   0.0000
  26 C26          1.4048     9.3310    -1.9363 C.3          1    LIG   0.0000
  27 C27          1.9239     7.1096    -0.9060 C.ar         1    LIG   0.0000
  28 C28          2.0052     5.6018     1.5333 C.3          1    LIG   0.0000
  29 C29          1.9923     3.5121     0.1943 C.3          1    LIG   0.0000
  30 C30          1.3985    -0.4778    -0.2789 C.3          1    LIG   0.0000
  31 C31          0.5605    -1.5414     0.4167 C.3          1    LIG   0.0000
  32 H           -0.9900    -1.6880    -0.8696 H            1    LIG   0.0000
  33 H            2.2056     5.2589     3.5788 H            1    LIG   0.0000
  34 H            5.5560     4.1649     1.4215 H            1    LIG   0.0000
  35 H            1.4382    -4.7647    -1.2623 H            1    LIG   0.0000
  36 H            1.7484    -4.1135     0.2028 H            1    LIG   0.0000
  37 H            0.9765    -5.5485     0.0939 H            1    LIG   0.0000
  38 H           -0.0064    -3.6679     1.5957 H            1    LIG   0.0000
  39 H           -1.3132    -4.5407     1.1516 H            1    LIG   0.0000
  40 H           -2.4576    -2.6902     0.4707 H            1    LIG   0.0000
  41 H           -1.7047    -2.1638     1.8208 H            1    LIG   0.0000
  42 H           -1.2729     0.1418     1.2664 H            1    LIG   0.0000
  43 H           -2.5107    -0.2848     0.2904 H            1    LIG   0.0000
  44 H           -1.8819     1.5562    -0.7412 H            1    LIG   0.0000
  45 H           -0.9265     0.4871    -1.5227 H            1    LIG   0.0000
  46 H            0.4623     2.2144    -1.0431 H            1    LIG   0.0000
  47 H           -0.1447     2.3902     0.4626 H            1    LIG   0.0000
  48 H            2.3509     2.8890     3.4507 H            1    LIG   0.0000
  49 H            1.0181     3.4062     2.6616 H            1    LIG   0.0000
  50 H            4.3832     5.7618     2.7517 H            1    LIG   0.0000
  51 H            4.3869     4.3101     3.4995 H            1    LIG   0.0000
  52 H            4.3536     2.3070     0.5330 H            1    LIG   0.0000
  53 H            4.3688     2.2312     2.1641 H            1    LIG   0.0000
  54 H            4.3486     5.8796     0.2819 H            1    LIG   0.0000
  55 H            4.3354     4.5061    -0.6013 H            1    LIG   0.0000
  56 H            1.5440     4.0246    -2.0830 H            1    LIG   0.0000
  57 H            0.7050     5.2451    -3.9646 H            1    LIG   0.0000
  58 H            0.1762     7.2501    -5.0378 H            1    LIG   0.0000
  59 H           -0.3374     8.4403    -4.0446 H            1    LIG   0.0000
  60 H            1.1663     8.4981    -4.6788 H            1    LIG   0.0000
  61 H            1.7653     9.6334    -1.0539 H            1    LIG   0.0000
  62 H            1.9666     9.7080    -2.6727 H            1    LIG   0.0000
  63 H            0.4628     9.6506    -2.0387 H            1    LIG   0.0000
  64 H            2.2466     7.5999    -0.0965 H            1    LIG   0.0000
  65 H            1.0053     5.6009     1.5468 H            1    LIG   0.0000
  66 H            2.3382     6.5438     1.5731 H            1    LIG   0.0000
  67 H            2.3154     3.0834    -0.6493 H            1    LIG   0.0000
  68 H            0.9924     3.5122     0.2065 H            1    LIG   0.0000
  69 H            2.3649    -0.7162    -0.1834 H            1    LIG   0.0000
  70 H            1.1541    -0.4586    -1.2484 H            1    LIG   0.0000
  71 H            0.8981    -2.4408     0.1391 H            1    LIG   0.0000
  72 H            0.6710    -1.4342     1.4047 H            1    LIG   0.0000
@<TRIPOS>BOND
   1        1        2 1
   2        2        3 1
   3        3        4 1
   4        4        5 1
   5        5        6 1
   6        6        7 1
   7        7        8 1
   8        8        9 1
   9        9       10 am
  10       10       11 2
  11       10       12 1
  12       12       13 1
  13       13       14 1
  14       14       15 1
  15       15       16 1
  16       16       17 1
  17       17       12 1
  18       16       18 1
  19       18       19 1
  20       19       20 1
  21       20       21 ar
  22       21       22 ar
  23       22       23 ar
  24       23       24 1
  25       23       25 ar
  26       25       26 1
  27       25       27 ar
  28       27       20 ar
  29       19       28 1
  30       28       14 1
  31       19       29 1
  32       29       12 1
  33        9       30 1
  34       30       31 1
  35       31        5 1
  36        5       32 1
  37       14       33 1
  38       16       34 1
  39        1       35 1
  40        1       36 1
  41        1       37 1
  42        3       38 1
  43        3       39 1
  44        4       40 1
  45        4       41 1
  46        6       42 1
  47        6       43 1
  48        7       44 1
  49        7       45 1
  50        8       46 1
  51        8       47 1
  52       13       48 1
  53       13       49 1
  54       15       50 1
  55       15       51 1
  56       17       52 1
  57       17       53 1
  58       18       54 1
  59       18       55 1
  60       21       56 1
  61       22       57 1
  62       24       58 1
  63       24       59 1
  64       24       60 1
  65       26       61 1
  66       26       62 1
  67       26       63 1
  68       27       64 1
  69       28       65 1
  70       28       66 1
  71       29       67 1
  72       29       68 1
  73       30       69 1
  74       30       70 1
  75       31       71 1
  76       31       72 1

@<TRIPOS>MOLECULE

  72   76
SMALL
USER_CHARGES
@<TRIPOS>ATOM
   1 C1           1.1856    -4.4437    -0.3236 C.3          1    LIG   0.0000
   2 O2          -0.1545    -3.9759    -0.3655 O.3          1    LIG   0.0000
   3 C3          -0.7320    -3.7624     0.9141 C.3          1    LIG   0.0000
   4 C4          -1.5696    -2.4943     0.8867 C.3          1    LIG   0.0000
   5 N5          -0.8755    -1.4655     0.0986 N.4          1    LIG   1.0000
   6 C6          -1.5199    -0.1621     0.3462 C.3          1    LIG   0.0000
   7 C7          -1.1143     0.9230    -0.6425 C.3          1    LIG   0.0000
   8 C8           0.1161     1.7287    -0.2405 C.3          1    LIG   0.0000
   9 N9           1.1826     0.8620     0.2906 N.am         1    LIG   0.0000
  10 C10          2.0074     1.2866     1.3440 C.2          1    LIG   0.0000
  11 O11          2.3176     0.5170     2.2108 O.2          1    LIG   0.0000
  12 C12          2.5072     2.7208     1.3868 C.3          1    LIG   0.0000
  13 C13          1.9903     3.4928     0.1831 C.3          1    LIG   0.0000
  14 C14          2.4941     4.9272     0.2163 C.3          1    LIG   0.0000
  15 C15          4.0147     4.9255     0.1944 C.3          1    LIG   0.0000
  16 C16          4.5436     4.1660     1.4008 C.3          1    LIG   0.0000
  17 C17          4.0275     2.7360     1.3617 C.3          1    LIG   0.0000
  18 C18          4.0487     4.8318     2.6753 C.3          1    LIG   0.0000
  19 C19          2.5288     4.8351     2.7116 C.3          1    LIG   0.0000
  20 C20          2.0403     5.5114     3.9826 C.ar         1    LIG   0.0000
  21 C21          1.6142     6.8349     3.9308 C.ar         1    LIG   0.0000
  22 C22          1.1682     7.4498     5.0962 C.ar         1    LIG   0.0000
  23 C23          1.1485     6.7495     6.2976 C.ar         1    LIG   0.0000
  24 C24          0.6587     7.4301     7.5657 C.3          1    LIG   0.0000
  25 C25          1.5764     5.4258     6.3390 C.ar         1    LIG   0.0000
  26 C26          1.5684     4.6295     7.6339 C.3          1    LIG   0.0000
  27 C27          2.0244     4.8023     5.1788 C.ar         1    LIG   0.0000
  28 C28          2.0085     5.5878     1.4971 C.3          1    LIG   0.0000
  29 C29          2.0271     3.4007     2.6592 C.3          1    LIG   0.0000
  30 C30          1.3985    -0.4778    -0.2789 C.3          1    LIG   0.0000
  31 C31          0.5605    -1.5414     0.4167 C.3          1    LIG   0.0000
  32 H           -0.9900    -1.6880    -0.8696 H            1    LIG   0.0000
  33 H            2.1446     5.4272    -0.5761 H            1    LIG   0.0000
  34 H            5.5435     4.1645     1.3870 H            1    LIG   0.0000
  35 H            1.5237    -4.5704    -1.2561 H            1    LIG   0.0000
  36 H            1.7576    -3.7742     0.1503 H            1    LIG   0.0000
  37 H            1.2191    -5.3158     0.1646 H            1    LIG   0.0000
  38 H           -0.0064    -3.6679     1.5957 H            1    LIG   0.0000
  39 H           -1.3132    -4.5407     1.1516 H            1    LIG   0.0000
  40 H           -2.4576    -2.6902     0.4707 H            1    LIG   0.0000
  41 H           -1.7047    -2.1638     1.8208 H            1    LIG   0.0000
  42 H           -1.2729     0.1418     1.2664 H            1    LIG   0.0000
  43 H           -2.5107    -0.2848     0.2904 H            1    LIG   0.0000
  44 H           -1.8819     1.5562    -0.7412 H            1    LIG   0.0000
  45 H           -0.9265     0.4871    -1.5227 H            1    LIG   0.0000
  46 H            0.4623     2.2144    -1.0431 H            1    LIG   0.0000
  47 H           -0.1447     2.3902     0.4626 H            1    LIG   0.0000
  48 H            0.9904     3.4945     0.1976 H            1    LIG   0.0000
  49 H            2.3108     3.0504    -0.6544 H            1    LIG   0.0000
  50 H            4.3346     4.4831    -0.6434 H            1    LIG   0.0000
  51 H            4.3486     5.8677     0.2221 H            1    LIG   0.0000
  52 H            4.3477     2.2928     0.5245 H            1    LIG   0.0000
  53 H            4.3752     2.2383     2.1563 H            1    LIG   0.0000
  54 H            4.3967     4.3293     3.4668 H            1    LIG   0.0000
  55 H            4.3817     5.7742     2.7061 H            1    LIG   0.0000
  56 H            1.6283     7.3378     3.0665 H            1    LIG   0.0000
  57 H            0.8600     8.4008     5.0699 H            1    LIG   0.0000
  58 H            0.3920     8.3711     7.3573 H            1    LIG   0.0000
  59 H           -0.1296     6.9326     7.9278 H            1    LIG   0.0000
  60 H            1.3915     7.4342     8.2461 H            1    LIG   0.0000
  61 H            1.9095     3.7059     7.4593 H            1    LIG   0.0000
  62 H            2.1559     5.0803     8.3060 H            1    LIG   0.0000
  63 H            0.6347     4.5787     7.9882 H            1    LIG   0.0000
  64 H            2.3326     3.8514     5.2048 H            1    LIG   0.0000
  65 H            2.3394     6.5310     1.5273 H            1    LIG   0.0000
  66 H            1.0086     5.5847     1.5109 H            1    LIG   0.0000
  67 H            1.0273     3.3999     2.6768 H            1    LIG   0.0000
  68 H            2.3748     2.9003     3.4522 H            1    LIG   0.0000
  69 H            2.3649    -0.7162    -0.1834 H            1    LIG   0.0000
  70 H            1.1541    -0.4586    -1.2484 H            1    LIG   0.0000
  71 H            0.8981    -2.4408     0.1391 H            1    LIG   0.0000
  72 H            0.6710    -1.4342     1.4047 H            1    LIG   0.0000
@<TRIPOS>BOND
   1        1        2 1
   2        2        3 1
   3        3        4 1
   4        4        5 1
   5        5        6 1
   6        6        7 1
   7        7        8 1
   8        8        9 1
   9        9       10 am
  10       10       11 2
  11       10       12 1
  12       12       13 1
  13       13       14 1
  14       14       15 1
  15       15       16 1
  16       16       17 1
  17       17       12 1
  18       16       18 1
  19       18       19 1
  20       19       20 1
  21       20       21 ar
  22       21       22 ar
  23       22       23 ar
  24       23       24 1
  25       23       25 ar
  26       25       26 1
  27       25       27 ar
  28       27       20 ar
  29       19       28 1
  30       28       14 1
  31       19       29 1
  32       29       12 1
  33        9       30 1
  34       30       31 1
  35       31        5 1
  36        5       32 1
  37       14       33 1
  38       16       34 1
  39        1       35 1
  40        1       36 1
  41        1       37 1
  42        3       38 1
  43        3       39 1
  44        4       40 1
  45        4       41 1
  46        6       42 1
  47        6       43 1
  48        7       44 1
  49        7       45 1
  50        8       46 1
  51        8       47 1
  52       13       48 1
  53       13       49 1
  54       15       50 1
  55       15       51 1
  56       17       52 1
  57       17       53 1
  58       18       54 1
  59       18       55 1
  60       21       56 1
  61       22       57 1
  62       24       58 1
  63       24       59 1
  64       24       60 1
  65       26       61 1
  66       26       62 1
  67       26       63 1
  68       27       64 1
  69       28       65 1
  70       28       66 1
  71       29       67 1
  72       29       68 1
  73       30       69 1
  74       30       70 1
  75       31       71 1
  76       31       72 1

