@<TRIPOS>MOLECULE
*****
 72 76 0 0 0
SMALL
USER_CHARGES

@<TRIPOS>ATOM
      1 C1          1.1856   -4.4437   -0.3236 C.3     1  LIG1        0.0000
      2 O2         -0.1545   -3.9759   -0.3655 O.3     1  LIG1        0.0000
      3 C3         -0.7320   -3.7624    0.9141 C.3     1  LIG1        0.0000
      4 C4         -1.5696   -2.4943    0.8867 C.3     1  LIG1        0.0000
      5 N5         -0.8755   -1.4655    0.0986 N.4     1  LIG1        1.0000
      6 C6         -1.5199   -0.1621    0.3462 C.3     1  LIG1        0.0000
      7 C7         -1.1143    0.9230   -0.6425 C.3     1  LIG1        0.0000
      8 C8          0.1161    1.7287   -0.2405 C.3     1  LIG1        0.0000
      9 N9          1.1826    0.8620    0.2906 N.am    1  LIG1        0.0000
     10 C10         2.0074    1.2866    1.3440 C.2     1  LIG1        0.0000
     11 O11         2.3176    0.5170    2.2108 O.2     1  LIG1        0.0000
     12 C12         2.5072    2.7208    1.3868 C.3     1  LIG1        0.0000
     13 C13         1.9903    3.4928    0.1831 C.3     1  LIG1        0.0000
     14 C14         2.4941    4.9272    0.2163 C.3     1  LIG1        0.0000
     15 C15         4.0147    4.9255    0.1944 C.3     1  LIG1        0.0000
     16 C16         4.5436    4.1660    1.4008 C.3     1  LIG1        0.0000
     17 C17         4.0275    2.7360    1.3617 C.3     1  LIG1        0.0000
     18 C18         4.0487    4.8318    2.6753 C.3     1  LIG1        0.0000
     19 C19         2.5288    4.8351    2.7116 C.3     1  LIG1        0.0000
     20 C20         2.0403    5.5114    3.9826 C.3     1  LIG1        0.0000
     21 C21         1.6142    6.8349    3.9308 C.3     1  LIG1        0.0000
     22 C22         1.1682    7.4498    5.0962 C.3     1  LIG1        0.0000
     23 C23         1.1485    6.7495    6.2976 C.3     1  LIG1        0.0000
     24 C24         0.6587    7.4301    7.5657 C.3     1  LIG1        0.0000
     25 C25         1.5764    5.4258    6.3390 C.3     1  LIG1        0.0000
     26 C26         1.5684    4.6295    7.6339 C.3     1  LIG1        0.0000
     27 C27         2.0244    4.8023    5.1788 C.3     1  LIG1        0.0000
     28 C28         2.0085    5.5878    1.4971 C.3     1  LIG1        0.0000
     29 C29         2.0271    3.4007    2.6592 C.3     1  LIG1        0.0000
     30 C30         1.3985   -0.4778   -0.2789 C.3     1  LIG1        0.0000
     31 C31         0.5605   -1.5414    0.4167 C.3     1  LIG1        0.0000
     32 H          -0.9900   -1.6880   -0.8696 H       1  LIG1        0.0000
     33 H           2.1446    5.4272   -0.5761 H       1  LIG1        0.0000
     34 H           5.5435    4.1645    1.3870 H       1  LIG1        0.0000
     35 H           1.5237   -4.5704   -1.2561 H       1  LIG1        0.0000
     36 H           1.7576   -3.7742    0.1503 H       1  LIG1        0.0000
     37 H           1.2191   -5.3158    0.1646 H       1  LIG1        0.0000
     38 H          -0.0064   -3.6679    1.5957 H       1  LIG1        0.0000
     39 H          -1.3132   -4.5407    1.1516 H       1  LIG1        0.0000
     40 H          -2.4576   -2.6902    0.4707 H       1  LIG1        0.0000
     41 H          -1.7047   -2.1638    1.8208 H       1  LIG1        0.0000
     42 H          -1.2729    0.1418    1.2664 H       1  LIG1        0.0000
     43 H          -2.5107   -0.2848    0.2904 H       1  LIG1        0.0000
     44 H          -1.8819    1.5562   -0.7412 H       1  LIG1        0.0000
     45 H          -0.9265    0.4871   -1.5227 H       1  LIG1        0.0000
     46 H           0.4623    2.2144   -1.0431 H       1  LIG1        0.0000
     47 H          -0.1447    2.3902    0.4626 H       1  LIG1        0.0000
     48 H           0.9904    3.4945    0.1976 H       1  LIG1        0.0000
     49 H           2.3108    3.0504   -0.6544 H       1  LIG1        0.0000
     50 H           4.3346    4.4831   -0.6434 H       1  LIG1        0.0000
     51 H           4.3486    5.8677    0.2221 H       1  LIG1        0.0000
     52 H           4.3477    2.2928    0.5245 H       1  LIG1        0.0000
     53 H           4.3752    2.2383    2.1563 H       1  LIG1        0.0000
     54 H           4.3967    4.3293    3.4668 H       1  LIG1        0.0000
     55 H           4.3817    5.7742    2.7061 H       1  LIG1        0.0000
     56 H           1.6283    7.3378    3.0665 H       1  LIG1        0.0000
     57 H           0.8600    8.4008    5.0699 H       1  LIG1        0.0000
     58 H           0.3920    8.3711    7.3573 H       1  LIG1        0.0000
     59 H          -0.1296    6.9326    7.9278 H       1  LIG1        0.0000
     60 H           1.3915    7.4342    8.2461 H       1  LIG1        0.0000
     61 H           1.9095    3.7059    7.4593 H       1  LIG1        0.0000
     62 H           2.1559    5.0803    8.3060 H       1  LIG1        0.0000
     63 H           0.6347    4.5787    7.9882 H       1  LIG1        0.0000
     64 H           2.3326    3.8514    5.2048 H       1  LIG1        0.0000
     65 H           2.3394    6.5310    1.5273 H       1  LIG1        0.0000
     66 H           1.0086    5.5847    1.5109 H       1  LIG1        0.0000
     67 H           1.0273    3.3999    2.6768 H       1  LIG1        0.0000
     68 H           2.3748    2.9003    3.4522 H       1  LIG1        0.0000
     69 H           2.3649   -0.7162   -0.1834 H       1  LIG1        0.0000
     70 H           1.1541   -0.4586   -1.2484 H       1  LIG1        0.0000
     71 H           0.8981   -2.4408    0.1391 H       1  LIG1        0.0000
     72 H           0.6710   -1.4342    1.4047 H       1  LIG1        0.0000
@<TRIPOS>UNITY_ATOM_ATTR
5 1
charge 1
@<TRIPOS>BOND
     1     1     2    1
     2     2     3    1
     3     3     4    1
     4     4     5    1
     5     5     6    1
     6     6     7    1
     7     7     8    1
     8     8     9    1
     9     9    10   am
    10    10    11    2
    11    10    12    1
    12    12    13    1
    13    13    14    1
    14    14    15    1
    15    15    16    1
    16    16    17    1
    17    17    12    1
    18    16    18    1
    19    18    19    1
    20    19    20    1
    21    20    21   ar
    22    21    22   ar
    23    22    23   ar
    24    23    24    1
    25    23    25   ar
    26    25    26    1
    27    25    27   ar
    28    27    20   ar
    29    19    28    1
    30    28    14    1
    31    19    29    1
    32    29    12    1
    33     9    30    1
    34    30    31    1
    35    31     5    1
    36     5    32    1
    37    14    33    1
    38    16    34    1
    39     1    35    1
    40     1    36    1
    41     1    37    1
    42     3    38    1
    43     3    39    1
    44     4    40    1
    45     4    41    1
    46     6    42    1
    47     6    43    1
    48     7    44    1
    49     7    45    1
    50     8    46    1
    51     8    47    1
    52    13    48    1
    53    13    49    1
    54    15    50    1
    55    15    51    1
    56    17    52    1
    57    17    53    1
    58    18    54    1
    59    18    55    1
    60    21    56    1
    61    22    57    1
    62    24    58    1
    63    24    59    1
    64    24    60    1
    65    26    61    1
    66    26    62    1
    67    26    63    1
    68    27    64    1
    69    28    65    1
    70    28    66    1
    71    29    67    1
    72    29    68    1
    73    30    69    1
    74    30    70    1
    75    31    71    1
    76    31    72    1
