@<TRIPOS>MOLECULE
*****
 72 76 0 0 0
SMALL
USER_CHARGES

@<TRIPOS>ATOM
      1 C1          1.0945   -4.6505   -0.3301 C.3     1  LIG1        0.0000
      2 O2         -0.1545   -3.9759   -0.3655 O.3     1  LIG1        0.0000
      3 C3         -0.7320   -3.7624    0.9141 C.3     1  LIG1        0.0000
      4 C4         -1.5696   -2.4943    0.8867 C.3     1  LIG1        0.0000
      5 N5         -0.8755   -1.4655    0.0986 N.4     1  LIG1        1.0000
      6 C6         -1.5199   -0.1621    0.3462 C.3     1  LIG1        0.0000
      7 C7         -1.1143    0.9230   -0.6425 C.3     1  LIG1        0.0000
      8 C8          0.1161    1.7287   -0.2405 C.3     1  LIG1        0.0000
      9 N9          1.1826    0.8620    0.2906 N.am    1  LIG1        0.0000
     10 C10         2.0074    1.2866    1.3440 C.2     1  LIG1        0.0000
     11 O11         2.3176    0.5170    2.2108 O.2     1  LIG1        0.0000
     12 C12         2.5072    2.7206    1.3868 C.3     1  LIG1        0.0000
     13 C13         1.9851    3.4872    0.1819 C.3     1  LIG1        0.0000
     14 C14         2.4848    4.9226    0.2198 C.3     1  LIG1        0.0000
     15 C15         1.9956    5.5919    1.4946 C.3     1  LIG1        0.0000
     16 C16         2.5275    4.8352    2.7015 C.3     1  LIG1        0.0000
     17 C17         2.0247    3.4010    2.6582 C.3     1  LIG1        0.0000
     18 C18         4.0478    4.8390    2.6728 C.3     1  LIG1        0.0000
     19 C19         4.5449    4.1687    1.4021 C.3     1  LIG1        0.0000
     20 C20         6.0649    4.1768    1.3710 C.3     1  LIG1        0.0000
     21 C21         6.7708    4.3453    2.5580 C.3     1  LIG1        0.0000
     22 C22         8.1615    4.3523    2.5248 C.3     1  LIG1        0.0000
     23 C23         8.8370    4.1925    1.3196 C.3     1  LIG1        0.0000
     24 C24        10.3569    4.2009    1.2937 C.3     1  LIG1        0.0000
     25 C25         8.1218    4.0242    0.1376 C.3     1  LIG1        0.0000
     26 C26         8.8264    3.8463   -1.1976 C.3     1  LIG1        0.0000
     27 C27         6.7307    4.0160    0.1607 C.3     1  LIG1        0.0000
     28 C28         4.0054    4.9244    0.1979 C.3     1  LIG1        0.0000
     29 C29         4.0276    2.7393    1.3586 C.3     1  LIG1        0.0000
     30 C30         1.3985   -0.4778   -0.2789 C.3     1  LIG1        0.0000
     31 C31         0.5605   -1.5414    0.4167 C.3     1  LIG1        0.0000
     32 H          -0.9900   -1.6880   -0.8696 H       1  LIG1        0.0000
     33 H           2.1372    5.4200   -0.5750 H       1  LIG1        0.0000
     34 H           2.2078    5.2763    3.5401 H       1  LIG1        0.0000
     35 H           1.4382   -4.7647   -1.2623 H       1  LIG1        0.0000
     36 H           1.7484   -4.1135    0.2028 H       1  LIG1        0.0000
     37 H           0.9765   -5.5485    0.0939 H       1  LIG1        0.0000
     38 H          -0.0064   -3.6679    1.5957 H       1  LIG1        0.0000
     39 H          -1.3132   -4.5407    1.1516 H       1  LIG1        0.0000
     40 H          -2.4576   -2.6902    0.4707 H       1  LIG1        0.0000
     41 H          -1.7047   -2.1638    1.8208 H       1  LIG1        0.0000
     42 H          -1.2729    0.1418    1.2664 H       1  LIG1        0.0000
     43 H          -2.5107   -0.2848    0.2904 H       1  LIG1        0.0000
     44 H          -1.8819    1.5562   -0.7412 H       1  LIG1        0.0000
     45 H          -0.9265    0.4871   -1.5227 H       1  LIG1        0.0000
     46 H           0.4623    2.2144   -1.0431 H       1  LIG1        0.0000
     47 H          -0.1447    2.3902    0.4626 H       1  LIG1        0.0000
     48 H           0.9852    3.4845    0.1960 H       1  LIG1        0.0000
     49 H           2.3078    3.0465   -0.6557 H       1  LIG1        0.0000
     50 H           2.3237    6.5361    1.5222 H       1  LIG1        0.0000
     51 H           0.9958    5.5858    1.5116 H       1  LIG1        0.0000
     52 H           2.3729    2.9037    3.4528 H       1  LIG1        0.0000
     53 H           1.0249    3.3996    2.6759 H       1  LIG1        0.0000
     54 H           4.3773    5.7827    2.7002 H       1  LIG1        0.0000
     55 H           4.3953    4.3414    3.4676 H       1  LIG1        0.0000
     56 H           6.2845    4.4599    3.4243 H       1  LIG1        0.0000
     57 H           8.6785    4.4730    3.3722 H       1  LIG1        0.0000
     58 H          10.7054    4.3314    2.2219 H       1  LIG1        0.0000
     59 H          10.6890    3.3296    0.9325 H       1  LIG1        0.0000
     60 H          10.6762    4.9473    0.7098 H       1  LIG1        0.0000
     61 H           8.1455    3.7411   -1.9224 H       1  LIG1        0.0000
     62 H           9.3920    4.6493   -1.3856 H       1  LIG1        0.0000
     63 H           9.4052    3.0316   -1.1632 H       1  LIG1        0.0000
     64 H           6.2136    3.8954   -0.6866 H       1  LIG1        0.0000
     65 H           4.3249    4.4827   -0.6404 H       1  LIG1        0.0000
     66 H           4.3356    5.8680    0.2242 H       1  LIG1        0.0000
     67 H           4.3774    2.2387    2.1505 H       1  LIG1        0.0000
     68 H           4.3464    2.2996    0.5189 H       1  LIG1        0.0000
     69 H           2.3649   -0.7162   -0.1834 H       1  LIG1        0.0000
     70 H           1.1541   -0.4586   -1.2484 H       1  LIG1        0.0000
     71 H           0.8981   -2.4408    0.1391 H       1  LIG1        0.0000
     72 H           0.6710   -1.4342    1.4047 H       1  LIG1        0.0000
@<TRIPOS>UNITY_ATOM_ATTR
5 1
charge 1
@<TRIPOS>BOND
     1     1     2    1
     2     2     3    1
     3     3     4    1
     4     4     5    1
     5     5     6    1
     6     6     7    1
     7     7     8    1
     8     8     9    1
     9     9    10   am
    10    10    11    2
    11    10    12    1
    12    12    13    1
    13    13    14    1
    14    14    15    1
    15    15    16    1
    16    16    17    1
    17    17    12    1
    18    16    18    1
    19    18    19    1
    20    19    20    1
    21    20    21   ar
    22    21    22   ar
    23    22    23   ar
    24    23    24    1
    25    23    25   ar
    26    25    26    1
    27    25    27   ar
    28    27    20   ar
    29    19    28    1
    30    28    14    1
    31    19    29    1
    32    29    12    1
    33     9    30    1
    34    30    31    1
    35    31     5    1
    36     5    32    1
    37    14    33    1
    38    16    34    1
    39     1    35    1
    40     1    36    1
    41     1    37    1
    42     3    38    1
    43     3    39    1
    44     4    40    1
    45     4    41    1
    46     6    42    1
    47     6    43    1
    48     7    44    1
    49     7    45    1
    50     8    46    1
    51     8    47    1
    52    13    48    1
    53    13    49    1
    54    15    50    1
    55    15    51    1
    56    17    52    1
    57    17    53    1
    58    18    54    1
    59    18    55    1
    60    21    56    1
    61    22    57    1
    62    24    58    1
    63    24    59    1
    64    24    60    1
    65    26    61    1
    66    26    62    1
    67    26    63    1
    68    27    64    1
    69    28    65    1
    70    28    66    1
    71    29    67    1
    72    29    68    1
    73    30    69    1
    74    30    70    1
    75    31    71    1
    76    31    72    1
