@<TRIPOS>MOLECULE
*****
 72 76 0 0 0
SMALL
USER_CHARGES

@<TRIPOS>ATOM
      1 C1          2.9277   -4.5485    1.6909 C.3     1  LIG1        0.0000
      2 O2          1.7352   -3.9306    2.1518 O.3     1  LIG1        0.0000
      3 C3          0.7069   -3.8593    1.1751 C.3     1  LIG1        0.0000
      4 C4          1.0977   -2.8584    0.1000 C.3     1  LIG1        0.0000
      5 N5          0.6109   -1.5251    0.4728 N.4     1  LIG1        1.0000
      6 C6          1.4736   -0.5258   -0.1893 C.3     1  LIG1        0.0000
      7 C7          1.2989    0.9051    0.3075 C.3     1  LIG1        0.0000
      8 C8          0.2038    1.6950   -0.4027 C.3     1  LIG1        0.0000
      9 N9         -1.0206    0.9052   -0.6110 N.am    1  LIG1        0.0000
     10 C10        -1.7867    1.1060   -1.7663 C.2     1  LIG1        0.0000
     11 O11        -2.2665    0.1669   -2.3388 O.2     1  LIG1        0.0000
     12 C12        -2.0103    2.5130   -2.2944 C.3     1  LIG1        0.0000
     13 C13        -1.4504    2.6400   -3.7025 C.3     1  LIG1        0.0000
     14 C14        -1.6641    4.0488   -4.2335 C.3     1  LIG1        0.0000
     15 C15        -0.9577    5.0409   -3.3227 C.3     1  LIG1        0.0000
     16 C16        -1.5181    4.9313   -1.9134 C.3     1  LIG1        0.0000
     17 C17        -1.3062    3.5172   -1.3956 C.3     1  LIG1        0.0000
     18 C18        -3.0095    5.2271   -1.9370 C.3     1  LIG1        0.0000
     19 C19        -3.7283    4.2381   -2.8407 C.3     1  LIG1        0.0000
     20 C20        -5.2169    4.5456   -2.8686 C.3     1  LIG1        0.0000
     21 C21        -5.6601    5.8082   -2.4874 C.3     1  LIG1        0.0000
     22 C22        -7.0231    6.0851   -2.5141 C.3     1  LIG1        0.0000
     23 C23        -7.9307    5.1116   -2.9174 C.3     1  LIG1        0.0000
     24 C24        -9.4182    5.4241   -2.9440 C.3     1  LIG1        0.0000
     25 C25        -7.4774    3.8517   -3.2973 C.3     1  LIG1        0.0000
     26 C26        -8.4403    2.7635   -3.7440 C.3     1  LIG1        0.0000
     27 C27        -6.1162    3.5652   -3.2736 C.3     1  LIG1        0.0000
     28 C28        -3.1552    4.3474   -4.2450 C.3     1  LIG1        0.0000
     29 C29        -3.4973    2.8289   -2.3185 C.3     1  LIG1        0.0000
     30 C30        -1.4535   -0.1036    0.3699 C.3     1  LIG1        0.0000
     31 C31        -0.8201   -1.4665    0.1255 C.3     1  LIG1        0.0000
     32 H           0.7025   -1.4184    1.4628 H       1  LIG1        0.0000
     33 H          -1.2973    4.1203   -5.1611 H       1  LIG1        0.0000
     34 H          -1.0540    5.5834   -1.3139 H       1  LIG1        0.0000
     35 H           3.6025   -4.5626    2.4288 H       1  LIG1        0.0000
     36 H           2.7282   -5.4853    1.4036 H       1  LIG1        0.0000
     37 H           3.2923   -4.0325    0.9157 H       1  LIG1        0.0000
     38 H          -0.1453   -3.5668    1.6090 H       1  LIG1        0.0000
     39 H           0.5777   -4.7602    0.7607 H       1  LIG1        0.0000
     40 H           2.0935   -2.8368    0.0109 H       1  LIG1        0.0000
     41 H           0.6908   -3.1301   -0.7721 H       1  LIG1        0.0000
     42 H           1.2713   -0.5412   -1.1685 H       1  LIG1        0.0000
     43 H           2.4262   -0.7915   -0.0415 H       1  LIG1        0.0000
     44 H           2.1651    1.3879    0.1788 H       1  LIG1        0.0000
     45 H           1.0774    0.8720    1.2821 H       1  LIG1        0.0000
     46 H          -0.0227    2.4967    0.1505 H       1  LIG1        0.0000
     47 H           0.5490    1.9912   -1.2932 H       1  LIG1        0.0000
     48 H          -1.9151    1.9881   -4.3018 H       1  LIG1        0.0000
     49 H          -0.4710    2.4389   -3.6869 H       1  LIG1        0.0000
     50 H           0.0217    4.8393   -3.3077 H       1  LIG1        0.0000
     51 H          -1.1018    5.9688   -3.6666 H       1  LIG1        0.0000
     52 H          -0.3269    3.3153   -1.3796 H       1  LIG1        0.0000
     53 H          -1.6763    3.4465   -0.4693 H       1  LIG1        0.0000
     54 H          -3.3755    5.1527   -1.0093 H       1  LIG1        0.0000
     55 H          -3.1567    6.1548   -2.2800 H       1  LIG1        0.0000
     56 H          -5.0069    6.5078   -2.1978 H       1  LIG1        0.0000
     57 H          -7.3521    6.9893   -2.2419 H       1  LIG1        0.0000
     58 H          -9.5663    6.3662   -2.6431 H       1  LIG1        0.0000
     59 H          -9.7656    5.3130   -3.8751 H       1  LIG1        0.0000
     60 H          -9.9012    4.7986   -2.3311 H       1  LIG1        0.0000
     61 H          -7.9260    1.9373   -3.9741 H       1  LIG1        0.0000
     62 H          -9.0817    2.5615   -3.0038 H       1  LIG1        0.0000
     63 H          -8.9466    3.0757   -4.5479 H       1  LIG1        0.0000
     64 H          -5.7869    2.6611   -3.5457 H       1  LIG1        0.0000
     65 H          -3.3030    5.2743   -4.5900 H       1  LIG1        0.0000
     66 H          -3.6179    3.6918   -4.8417 H       1  LIG1        0.0000
     67 H          -3.9639    2.1754   -2.9146 H       1  LIG1        0.0000
     68 H          -3.8653    2.7560   -1.3915 H       1  LIG1        0.0000
     69 H          -2.4475   -0.1978    0.3152 H       1  LIG1        0.0000
     70 H          -1.1981    0.2089    1.2849 H       1  LIG1        0.0000
     71 H          -1.3068   -2.1443    0.6765 H       1  LIG1        0.0000
     72 H          -0.9193   -1.6915   -0.8438 H       1  LIG1        0.0000
@<TRIPOS>UNITY_ATOM_ATTR
5 1
charge 1
@<TRIPOS>BOND
     1     1     2    1
     2     2     3    1
     3     3     4    1
     4     4     5    1
     5     5     6    1
     6     6     7    1
     7     7     8    1
     8     8     9    1
     9     9    10   am
    10    10    11    2
    11    10    12    1
    12    12    13    1
    13    13    14    1
    14    14    15    1
    15    15    16    1
    16    16    17    1
    17    17    12    1
    18    16    18    1
    19    18    19    1
    20    19    20    1
    21    20    21   ar
    22    21    22   ar
    23    22    23   ar
    24    23    24    1
    25    23    25   ar
    26    25    26    1
    27    25    27   ar
    28    27    20   ar
    29    19    28    1
    30    28    14    1
    31    19    29    1
    32    29    12    1
    33     9    30    1
    34    30    31    1
    35    31     5    1
    36     5    32    1
    37    14    33    1
    38    16    34    1
    39     1    35    1
    40     1    36    1
    41     1    37    1
    42     3    38    1
    43     3    39    1
    44     4    40    1
    45     4    41    1
    46     6    42    1
    47     6    43    1
    48     7    44    1
    49     7    45    1
    50     8    46    1
    51     8    47    1
    52    13    48    1
    53    13    49    1
    54    15    50    1
    55    15    51    1
    56    17    52    1
    57    17    53    1
    58    18    54    1
    59    18    55    1
    60    21    56    1
    61    22    57    1
    62    24    58    1
    63    24    59    1
    64    24    60    1
    65    26    61    1
    66    26    62    1
    67    26    63    1
    68    27    64    1
    69    28    65    1
    70    28    66    1
    71    29    67    1
    72    29    68    1
    73    30    69    1
    74    30    70    1
    75    31    71    1
    76    31    72    1
