@<TRIPOS>MOLECULE
*****
 72 76 0 0 0
SMALL
USER_CHARGES

@<TRIPOS>ATOM
      1 C1          2.9277   -4.5485    1.6909 C.3     1  LIG1        0.0000
      2 O2          1.7352   -3.9306    2.1518 O.3     1  LIG1        0.0000
      3 C3          0.7069   -3.8593    1.1751 C.3     1  LIG1        0.0000
      4 C4          1.0977   -2.8584    0.1000 C.3     1  LIG1        0.0000
      5 N5          0.6109   -1.5251    0.4728 N.4     1  LIG1        1.0000
      6 C6          1.4736   -0.5258   -0.1893 C.3     1  LIG1        0.0000
      7 C7          1.2989    0.9051    0.3075 C.3     1  LIG1        0.0000
      8 C8          0.2038    1.6950   -0.4027 C.3     1  LIG1        0.0000
      9 N9         -1.0206    0.9052   -0.6110 N.am    1  LIG1        0.0000
     10 C10        -1.7867    1.1060   -1.7663 C.2     1  LIG1        0.0000
     11 O11        -2.2665    0.1669   -2.3388 O.2     1  LIG1        0.0000
     12 C12        -2.0102    2.5128   -2.2944 C.3     1  LIG1        0.0000
     13 C13        -1.4501    2.6322   -3.7029 C.3     1  LIG1        0.0000
     14 C14        -1.6700    4.0396   -4.2345 C.3     1  LIG1        0.0000
     15 C15        -3.1601    4.3418   -4.2566 C.3     1  LIG1        0.0000
     16 C16        -3.7203    4.2363   -2.8470 C.3     1  LIG1        0.0000
     17 C17        -3.4977    2.8274   -2.3207 C.3     1  LIG1        0.0000
     18 C18        -3.0099    5.2316   -1.9431 C.3     1  LIG1        0.0000
     19 C19        -1.5194    4.9343   -1.9136 C.3     1  LIG1        0.0000
     20 C20        -0.8083    5.9324   -1.0138 C.3     1  LIG1        0.0000
     21 C21        -1.5397    6.6330   -0.0599 C.3     1  LIG1        0.0000
     22 C22        -0.8850    7.5454    0.7610 C.3     1  LIG1        0.0000
     23 C23         0.4837    7.7539    0.6294 C.3     1  LIG1        0.0000
     24 C24         1.1903    8.7527    1.5317 C.3     1  LIG1        0.0000
     25 C25         1.2067    7.0479   -0.3275 C.3     1  LIG1        0.0000
     26 C26         2.7036    7.2496   -0.4994 C.3     1  LIG1        0.0000
     27 C27         0.5607    6.1334   -1.1534 C.3     1  LIG1        0.0000
     28 C28        -0.9646    5.0343   -3.3258 C.3     1  LIG1        0.0000
     29 C29        -1.3045    3.5194   -1.3991 C.3     1  LIG1        0.0000
     30 C30        -1.4535   -0.1036    0.3699 C.3     1  LIG1        0.0000
     31 C31        -0.8201   -1.4665    0.1255 C.3     1  LIG1        0.0000
     32 H           0.7025   -1.4184    1.4628 H       1  LIG1        0.0000
     33 H          -1.2995    4.1100   -5.1607 H       1  LIG1        0.0000
     34 H          -4.6998    4.4372   -2.8607 H       1  LIG1        0.0000
     35 H           3.6025   -4.5626    2.4288 H       1  LIG1        0.0000
     36 H           2.7282   -5.4853    1.4036 H       1  LIG1        0.0000
     37 H           3.2923   -4.0325    0.9157 H       1  LIG1        0.0000
     38 H          -0.1453   -3.5668    1.6090 H       1  LIG1        0.0000
     39 H           0.5777   -4.7602    0.7607 H       1  LIG1        0.0000
     40 H           2.0935   -2.8368    0.0109 H       1  LIG1        0.0000
     41 H           0.6908   -3.1301   -0.7721 H       1  LIG1        0.0000
     42 H           1.2713   -0.5412   -1.1685 H       1  LIG1        0.0000
     43 H           2.4262   -0.7915   -0.0415 H       1  LIG1        0.0000
     44 H           2.1651    1.3879    0.1788 H       1  LIG1        0.0000
     45 H           1.0774    0.8720    1.2821 H       1  LIG1        0.0000
     46 H          -0.0227    2.4967    0.1505 H       1  LIG1        0.0000
     47 H           0.5490    1.9912   -1.2932 H       1  LIG1        0.0000
     48 H          -1.9133    1.9771   -4.2998 H       1  LIG1        0.0000
     49 H          -0.4701    2.4339   -3.6872 H       1  LIG1        0.0000
     50 H          -3.3073    5.2674   -4.6053 H       1  LIG1        0.0000
     51 H          -3.6247    3.6843   -4.8499 H       1  LIG1        0.0000
     52 H          -3.8677    2.7573   -1.3943 H       1  LIG1        0.0000
     53 H          -3.9642    2.1736   -2.9164 H       1  LIG1        0.0000
     54 H          -3.1561    6.1578   -2.2908 H       1  LIG1        0.0000
     55 H          -3.3803    5.1609   -1.0169 H       1  LIG1        0.0000
     56 H          -2.5238    6.4824    0.0344 H       1  LIG1        0.0000
     57 H          -1.4015    8.0544    1.4497 H       1  LIG1        0.0000
     58 H           0.5267    9.1664    2.1551 H       1  LIG1        0.0000
     59 H           1.8965    8.2824    2.0609 H       1  LIG1        0.0000
     60 H           1.6124    9.4664    0.9728 H       1  LIG1        0.0000
     61 H           3.0379    6.6565   -1.2319 H       1  LIG1        0.0000
     62 H           2.8865    8.2043   -0.7339 H       1  LIG1        0.0000
     63 H           3.1710    7.0206    0.3544 H       1  LIG1        0.0000
     64 H           1.0769    5.6244   -1.8421 H       1  LIG1        0.0000
     65 H           0.0148    4.8329   -3.3117 H       1  LIG1        0.0000
     66 H          -1.1095    5.9606   -3.6735 H       1  LIG1        0.0000
     67 H          -1.6705    3.4477   -0.4713 H       1  LIG1        0.0000
     68 H          -0.3248    3.3190   -1.3874 H       1  LIG1        0.0000
     69 H          -2.4475   -0.1978    0.3152 H       1  LIG1        0.0000
     70 H          -1.1981    0.2089    1.2849 H       1  LIG1        0.0000
     71 H          -1.3068   -2.1443    0.6765 H       1  LIG1        0.0000
     72 H          -0.9193   -1.6915   -0.8438 H       1  LIG1        0.0000
@<TRIPOS>UNITY_ATOM_ATTR
5 1
charge 1
@<TRIPOS>BOND
     1     1     2    1
     2     2     3    1
     3     3     4    1
     4     4     5    1
     5     5     6    1
     6     6     7    1
     7     7     8    1
     8     8     9    1
     9     9    10   am
    10    10    11    2
    11    10    12    1
    12    12    13    1
    13    13    14    1
    14    14    15    1
    15    15    16    1
    16    16    17    1
    17    17    12    1
    18    16    18    1
    19    18    19    1
    20    19    20    1
    21    20    21   ar
    22    21    22   ar
    23    22    23   ar
    24    23    24    1
    25    23    25   ar
    26    25    26    1
    27    25    27   ar
    28    27    20   ar
    29    19    28    1
    30    28    14    1
    31    19    29    1
    32    29    12    1
    33     9    30    1
    34    30    31    1
    35    31     5    1
    36     5    32    1
    37    14    33    1
    38    16    34    1
    39     1    35    1
    40     1    36    1
    41     1    37    1
    42     3    38    1
    43     3    39    1
    44     4    40    1
    45     4    41    1
    46     6    42    1
    47     6    43    1
    48     7    44    1
    49     7    45    1
    50     8    46    1
    51     8    47    1
    52    13    48    1
    53    13    49    1
    54    15    50    1
    55    15    51    1
    56    17    52    1
    57    17    53    1
    58    18    54    1
    59    18    55    1
    60    21    56    1
    61    22    57    1
    62    24    58    1
    63    24    59    1
    64    24    60    1
    65    26    61    1
    66    26    62    1
    67    26    63    1
    68    27    64    1
    69    28    65    1
    70    28    66    1
    71    29    67    1
    72    29    68    1
    73    30    69    1
    74    30    70    1
    75    31    71    1
    76    31    72    1
