@<TRIPOS>MOLECULE
*****
 72 76 0 0 0
SMALL
USER_CHARGES

@<TRIPOS>ATOM
      1 C1          1.0945   -4.6505   -0.3301 C.3     1  LIG1        0.0000
      2 O2         -0.1545   -3.9759   -0.3655 O.3     1  LIG1        0.0000
      3 C3         -0.7320   -3.7624    0.9141 C.3     1  LIG1        0.0000
      4 C4         -1.5696   -2.4943    0.8867 C.3     1  LIG1        0.0000
      5 N5         -0.8755   -1.4655    0.0986 N.4     1  LIG1        1.0000
      6 C6         -1.5199   -0.1621    0.3462 C.3     1  LIG1        0.0000
      7 C7         -1.1143    0.9230   -0.6425 C.3     1  LIG1        0.0000
      8 C8          0.1161    1.7287   -0.2405 C.3     1  LIG1        0.0000
      9 N9          1.1826    0.8620    0.2906 N.am    1  LIG1        0.0000
     10 C10         2.0074    1.2866    1.3440 C.2     1  LIG1        0.0000
     11 O11         2.3176    0.5170    2.2108 O.2     1  LIG1        0.0000
     12 C12         2.5076    2.7218    1.3869 C.3     1  LIG1        0.0000
     13 C13         2.0180    3.3992    2.6576 C.3     1  LIG1        0.0000
     14 C14         2.5275    4.8299    2.7348 C.3     1  LIG1        0.0000
     15 C15         4.0478    4.8207    2.7094 C.3     1  LIG1        0.0000
     16 C16         4.5561    4.1655    1.4349 C.3     1  LIG1        0.0000
     17 C17         4.0285    2.7403    1.3735 C.3     1  LIG1        0.0000
     18 C18         4.0148    4.9378    0.2419 C.3     1  LIG1        0.0000
     19 C19         2.4939    4.9466    0.2510 C.3     1  LIG1        0.0000
     20 C20         1.9605    5.7200   -0.9443 C.3     1  LIG1        0.0000
     21 C21         1.5147    5.0240   -2.0635 C.3     1  LIG1        0.0000
     22 C22         1.0277    5.7357   -3.1551 C.3     1  LIG1        0.0000
     23 C23         0.9869    7.1255   -3.1269 C.3     1  LIG1        0.0000
     24 C24         0.4523    7.8943   -4.3245 C.3     1  LIG1        0.0000
     25 C25         1.4348    7.8126   -2.0025 C.3     1  LIG1        0.0000
     26 C26         1.4048    9.3310   -1.9363 C.3     1  LIG1        0.0000
     27 C27         1.9239    7.1096   -0.9060 C.3     1  LIG1        0.0000
     28 C28         2.0052    5.6018    1.5333 C.3     1  LIG1        0.0000
     29 C29         1.9923    3.5121    0.1943 C.3     1  LIG1        0.0000
     30 C30         1.3985   -0.4778   -0.2789 C.3     1  LIG1        0.0000
     31 C31         0.5605   -1.5414    0.4167 C.3     1  LIG1        0.0000
     32 H          -0.9900   -1.6880   -0.8696 H       1  LIG1        0.0000
     33 H           2.2056    5.2589    3.5788 H       1  LIG1        0.0000
     34 H           5.5560    4.1649    1.4215 H       1  LIG1        0.0000
     35 H           1.4382   -4.7647   -1.2623 H       1  LIG1        0.0000
     36 H           1.7484   -4.1135    0.2028 H       1  LIG1        0.0000
     37 H           0.9765   -5.5485    0.0939 H       1  LIG1        0.0000
     38 H          -0.0064   -3.6679    1.5957 H       1  LIG1        0.0000
     39 H          -1.3132   -4.5407    1.1516 H       1  LIG1        0.0000
     40 H          -2.4576   -2.6902    0.4707 H       1  LIG1        0.0000
     41 H          -1.7047   -2.1638    1.8208 H       1  LIG1        0.0000
     42 H          -1.2729    0.1418    1.2664 H       1  LIG1        0.0000
     43 H          -2.5107   -0.2848    0.2904 H       1  LIG1        0.0000
     44 H          -1.8819    1.5562   -0.7412 H       1  LIG1        0.0000
     45 H          -0.9265    0.4871   -1.5227 H       1  LIG1        0.0000
     46 H           0.4623    2.2144   -1.0431 H       1  LIG1        0.0000
     47 H          -0.1447    2.3902    0.4626 H       1  LIG1        0.0000
     48 H           2.3509    2.8890    3.4507 H       1  LIG1        0.0000
     49 H           1.0181    3.4062    2.6616 H       1  LIG1        0.0000
     50 H           4.3832    5.7618    2.7517 H       1  LIG1        0.0000
     51 H           4.3869    4.3101    3.4995 H       1  LIG1        0.0000
     52 H           4.3536    2.3070    0.5330 H       1  LIG1        0.0000
     53 H           4.3688    2.2312    2.1641 H       1  LIG1        0.0000
     54 H           4.3486    5.8796    0.2819 H       1  LIG1        0.0000
     55 H           4.3354    4.5061   -0.6013 H       1  LIG1        0.0000
     56 H           1.5440    4.0246   -2.0830 H       1  LIG1        0.0000
     57 H           0.7050    5.2451   -3.9646 H       1  LIG1        0.0000
     58 H           0.1762    7.2501   -5.0378 H       1  LIG1        0.0000
     59 H          -0.3374    8.4403   -4.0446 H       1  LIG1        0.0000
     60 H           1.1663    8.4981   -4.6788 H       1  LIG1        0.0000
     61 H           1.7653    9.6334   -1.0539 H       1  LIG1        0.0000
     62 H           1.9666    9.7080   -2.6727 H       1  LIG1        0.0000
     63 H           0.4628    9.6506   -2.0387 H       1  LIG1        0.0000
     64 H           2.2466    7.5999   -0.0965 H       1  LIG1        0.0000
     65 H           1.0053    5.6009    1.5468 H       1  LIG1        0.0000
     66 H           2.3382    6.5438    1.5731 H       1  LIG1        0.0000
     67 H           2.3154    3.0834   -0.6493 H       1  LIG1        0.0000
     68 H           0.9924    3.5122    0.2065 H       1  LIG1        0.0000
     69 H           2.3649   -0.7162   -0.1834 H       1  LIG1        0.0000
     70 H           1.1541   -0.4586   -1.2484 H       1  LIG1        0.0000
     71 H           0.8981   -2.4408    0.1391 H       1  LIG1        0.0000
     72 H           0.6710   -1.4342    1.4047 H       1  LIG1        0.0000
@<TRIPOS>UNITY_ATOM_ATTR
5 1
charge 1
@<TRIPOS>BOND
     1     1     2    1
     2     2     3    1
     3     3     4    1
     4     4     5    1
     5     5     6    1
     6     6     7    1
     7     7     8    1
     8     8     9    1
     9     9    10   am
    10    10    11    2
    11    10    12    1
    12    12    13    1
    13    13    14    1
    14    14    15    1
    15    15    16    1
    16    16    17    1
    17    17    12    1
    18    16    18    1
    19    18    19    1
    20    19    20    1
    21    20    21   ar
    22    21    22   ar
    23    22    23   ar
    24    23    24    1
    25    23    25   ar
    26    25    26    1
    27    25    27   ar
    28    27    20   ar
    29    19    28    1
    30    28    14    1
    31    19    29    1
    32    29    12    1
    33     9    30    1
    34    30    31    1
    35    31     5    1
    36     5    32    1
    37    14    33    1
    38    16    34    1
    39     1    35    1
    40     1    36    1
    41     1    37    1
    42     3    38    1
    43     3    39    1
    44     4    40    1
    45     4    41    1
    46     6    42    1
    47     6    43    1
    48     7    44    1
    49     7    45    1
    50     8    46    1
    51     8    47    1
    52    13    48    1
    53    13    49    1
    54    15    50    1
    55    15    51    1
    56    17    52    1
    57    17    53    1
    58    18    54    1
    59    18    55    1
    60    21    56    1
    61    22    57    1
    62    24    58    1
    63    24    59    1
    64    24    60    1
    65    26    61    1
    66    26    62    1
    67    26    63    1
    68    27    64    1
    69    28    65    1
    70    28    66    1
    71    29    67    1
    72    29    68    1
    73    30    69    1
    74    30    70    1
    75    31    71    1
    76    31    72    1
