@<TRIPOS>MOLECULE

  29   30
SMALL
USER_CHARGES
@<TRIPOS>ATOM
   1 O1           1.0000     1.0000     1.0000 O.3          1    LIG   0.0000
   2 C2           2.3502     1.0000     1.0000 C.ar         1    LIG   0.0000
   3 C3           3.0458    -0.2047     1.0056 C.ar         1    LIG   0.0000
   4 Cl4          2.1443    -1.7398     1.0133 Cl           1    LIG   0.0000
   5 C5           4.4367    -0.2241     1.0072 C.ar         1    LIG   0.0000
   6 C6           5.1277     0.9831     1.0017 C.ar         1    LIG   0.0000
   7 C7           4.4491     2.1974     0.9949 C.ar         1    LIG   0.0000
   8 C8           3.0580     2.1979     0.9942 C.ar         1    LIG   0.0000
   9 C9           2.3114     3.5216     0.9875 C.3          1    LIG   0.0000
  10 C10          3.2789     4.6689     1.2298 C.3          1    LIG   0.0000
  11 C11          2.5313     5.9924     1.2182 C.3          1    LIG   0.0000
  12 C12          1.8219     6.1886    -0.1123 C.3          1    LIG   0.0000
  13 C13          0.8544     5.0390    -0.3465 C.3          1    LIG   0.0000
  14 C14          1.5952     3.7116    -0.3399 C.3          1    LIG   0.0000
  15 H            0.5000     1.8660     0.9959 H            1    LIG   0.0000
  16 H            4.9323    -1.0926     1.0122 H            1    LIG   0.0000
  17 H            6.1277     0.9780     1.0026 H            1    LIG   0.0000
  18 H            4.9553     3.0598     0.9907 H            1    LIG   0.0000
  19 H            1.6323     3.5123     1.7216 H            1    LIG   0.0000
  20 H            3.9727     4.6744     0.5097 H            1    LIG   0.0000
  21 H            3.7214     4.5465     2.1182 H            1    LIG   0.0000
  22 H            3.1813     6.7393     1.3584 H            1    LIG   0.0000
  23 H            1.8557     5.9958     1.9555 H            1    LIG   0.0000
  24 H            2.4971     6.2113    -0.8497 H            1    LIG   0.0000
  25 H            1.3166     7.0514    -0.0964 H            1    LIG   0.0000
  26 H            0.1657     5.0354     0.3786 H            1    LIG   0.0000
  27 H            0.4057     5.1614    -1.2318 H            1    LIG   0.0000
  28 H            0.9412     2.9668    -0.4728 H            1    LIG   0.0000
  29 H            2.2655     3.7028    -1.0820 H            1    LIG   0.0000
@<TRIPOS>BOND
   1        1        2 1
   2        2        3 ar
   3        3        4 1
   4        3        5 ar
   5        5        6 ar
   6        6        7 ar
   7        7        8 ar
   8        8        2 ar
   9        8        9 1
  10        9       10 1
  11       10       11 1
  12       11       12 1
  13       12       13 1
  14       13       14 1
  15       14        9 1
  16        1       15 1
  17        5       16 1
  18        6       17 1
  19        7       18 1
  20        9       19 1
  21       10       20 1
  22       10       21 1
  23       11       22 1
  24       11       23 1
  25       12       24 1
  26       12       25 1
  27       13       26 1
  28       13       27 1
  29       14       28 1
  30       14       29 1

@<TRIPOS>MOLECULE

  29   30
SMALL
USER_CHARGES
@<TRIPOS>ATOM
   1 O1           1.0000     1.0000     1.0000 O.3          1    LIG   0.0000
   2 C2           2.3502     1.0000     1.0000 C.ar         1    LIG   0.0000
   3 C3           3.0458    -0.2047     1.0056 C.ar         1    LIG   0.0000
   4 Cl4          2.1443    -1.7398     1.0133 Cl           1    LIG   0.0000
   5 C5           4.4367    -0.2241     1.0072 C.ar         1    LIG   0.0000
   6 C6           5.1277     0.9831     1.0017 C.ar         1    LIG   0.0000
   7 C7           4.4491     2.1974     0.9949 C.ar         1    LIG   0.0000
   8 C8           3.0580     2.1979     0.9942 C.ar         1    LIG   0.0000
   9 C9           2.3114     3.5216     0.9875 C.3          1    LIG   0.0000
  10 C10          2.6760     4.3338     2.2197 C.3          1    LIG   0.0000
  11 C11          1.9320     5.6594     2.2091 C.3          1    LIG   0.0000
  12 C12          2.2710     6.4473     0.9536 C.3          1    LIG   0.0000
  13 C13          1.9013     5.6298    -0.2743 C.3          1    LIG   0.0000
  14 C14          2.6443     4.3036    -0.2730 C.3          1    LIG   0.0000
  15 H            0.5000     1.8660     0.9959 H            1    LIG   0.0000
  16 H            4.9323    -1.0926     1.0122 H            1    LIG   0.0000
  17 H            6.1277     0.9780     1.0026 H            1    LIG   0.0000
  18 H            4.9553     3.0598     0.9907 H            1    LIG   0.0000
  19 H            1.3286     3.3374     1.0022 H            1    LIG   0.0000
  20 H            3.6609     4.5071     2.2223 H            1    LIG   0.0000
  21 H            2.4257     3.8203     3.0405 H            1    LIG   0.0000
  22 H            2.1958     6.1918     3.0135 H            1    LIG   0.0000
  23 H            0.9476     5.4850     2.2330 H            1    LIG   0.0000
  24 H            3.2510     6.6455     0.9392 H            1    LIG   0.0000
  25 H            1.7572     7.3052     0.9498 H            1    LIG   0.0000
  26 H            0.9166     5.4556    -0.2696 H            1    LIG   0.0000
  27 H            2.1451     6.1431    -1.0972 H            1    LIG   0.0000
  28 H            2.3724     3.7710    -1.0745 H            1    LIG   0.0000
  29 H            3.6289     4.4757    -0.3054 H            1    LIG   0.0000
@<TRIPOS>BOND
   1        1        2 1
   2        2        3 ar
   3        3        4 1
   4        3        5 ar
   5        5        6 ar
   6        6        7 ar
   7        7        8 ar
   8        8        2 ar
   9        8        9 1
  10        9       10 1
  11       10       11 1
  12       11       12 1
  13       12       13 1
  14       13       14 1
  15       14        9 1
  16        1       15 1
  17        5       16 1
  18        6       17 1
  19        7       18 1
  20        9       19 1
  21       10       20 1
  22       10       21 1
  23       11       22 1
  24       11       23 1
  25       12       24 1
  26       12       25 1
  27       13       26 1
  28       13       27 1
  29       14       28 1
  30       14       29 1

@<TRIPOS>MOLECULE

  29   30
SMALL
USER_CHARGES
@<TRIPOS>ATOM
   1 O1           1.0000     1.0000     1.0000 O.3          1    LIG   0.0000
   2 C2           2.3502     1.0000     1.0000 C.ar         1    LIG   0.0000
   3 C3           3.0458    -0.2047     1.0056 C.ar         1    LIG   0.0000
   4 Cl4          2.1443    -1.7398     1.0133 Cl           1    LIG   0.0000
   5 C5           4.4367    -0.2241     1.0072 C.ar         1    LIG   0.0000
   6 C6           5.1277     0.9831     1.0017 C.ar         1    LIG   0.0000
   7 C7           4.4491     2.1974     0.9949 C.ar         1    LIG   0.0000
   8 C8           3.0580     2.1979     0.9942 C.ar         1    LIG   0.0000
   9 C9           2.3114     3.5215     0.9875 C.3          1    LIG   0.0000
  10 C10          3.2775     4.6676     0.7342 C.3          1    LIG   0.0000
  11 C11          2.5311     5.9919     0.7312 C.3          1    LIG   0.0000
  12 C12          1.8214     6.1975     2.0599 C.3          1    LIG   0.0000
  13 C13          0.8540     5.0518     2.3102 C.3          1    LIG   0.0000
  14 C14          1.5982     3.7263     2.3141 C.3          1    LIG   0.0000
  15 H            0.5000     1.8660     0.9959 H            1    LIG   0.0000
  16 H            4.9323    -1.0926     1.0122 H            1    LIG   0.0000
  17 H            6.1277     0.9780     1.0026 H            1    LIG   0.0000
  18 H            4.9553     3.0598     0.9907 H            1    LIG   0.0000
  19 H            1.6313     3.5048     0.2546 H            1    LIG   0.0000
  20 H            3.7207     4.5362    -0.1525 H            1    LIG   0.0000
  21 H            3.9707     4.6807     1.4548 H            1    LIG   0.0000
  22 H            1.8563     5.9891    -0.0068 H            1    LIG   0.0000
  23 H            3.1816     6.7373     0.5853 H            1    LIG   0.0000
  24 H            1.3156     7.0598     2.0361 H            1    LIG   0.0000
  25 H            2.4975     6.2279     2.7961 H            1    LIG   0.0000
  26 H            0.4088     5.1832     3.1960 H            1    LIG   0.0000
  27 H            0.1624     5.0400     1.5880 H            1    LIG   0.0000
  28 H            2.2707     3.7271     3.0542 H            1    LIG   0.0000
  29 H            0.9461     2.9817     2.4571 H            1    LIG   0.0000
@<TRIPOS>BOND
   1        1        2 1
   2        2        3 ar
   3        3        4 1
   4        3        5 ar
   5        5        6 ar
   6        6        7 ar
   7        7        8 ar
   8        8        2 ar
   9        8        9 1
  10        9       10 1
  11       10       11 1
  12       11       12 1
  13       12       13 1
  14       13       14 1
  15       14        9 1
  16        1       15 1
  17        5       16 1
  18        6       17 1
  19        7       18 1
  20        9       19 1
  21       10       20 1
  22       10       21 1
  23       11       22 1
  24       11       23 1
  25       12       24 1
  26       12       25 1
  27       13       26 1
  28       13       27 1
  29       14       28 1
  30       14       29 1

@<TRIPOS>MOLECULE

  29   30
SMALL
USER_CHARGES
@<TRIPOS>ATOM
   1 O1           1.0000     1.0000     1.0000 O.3          1    LIG   0.0000
   2 C2           2.3502     1.0000     1.0000 C.ar         1    LIG   0.0000
   3 C3           3.0458    -0.2047     1.0056 C.ar         1    LIG   0.0000
   4 Cl4          2.1443    -1.7398     1.0133 Cl           1    LIG   0.0000
   5 C5           4.4367    -0.2241     1.0072 C.ar         1    LIG   0.0000
   6 C6           5.1277     0.9831     1.0017 C.ar         1    LIG   0.0000
   7 C7           4.4491     2.1974     0.9949 C.ar         1    LIG   0.0000
   8 C8           3.0580     2.1979     0.9942 C.ar         1    LIG   0.0000
   9 C9           2.3124     3.5198     0.9875 C.3          1    LIG   0.0000
  10 C10          3.2782     4.6703     1.2298 C.3          1    LIG   0.0000
  11 C11          2.5754     6.0209     1.1823 C.3          1    LIG   0.0000
  12 C12          1.0959     5.8971     0.8525 C.3          1    LIG   0.0000
  13 C13          0.9381     5.0886    -0.4255 C.3          1    LIG   0.0000
  14 C14          1.6167     3.7296    -0.3479 C.3          1    LIG   0.0000
  15 H            0.5000     1.8660     0.9959 H            1    LIG   0.0000
  16 H            4.9323    -1.0926     1.0122 H            1    LIG   0.0000
  17 H            6.1277     0.9780     1.0026 H            1    LIG   0.0000
  18 H            4.9553     3.0598     0.9907 H            1    LIG   0.0000
  19 H            1.6263     3.5110     1.7150 H            1    LIG   0.0000
  20 H            3.9881     4.6502     0.5258 H            1    LIG   0.0000
  21 H            3.6982     4.5558     2.1301 H            1    LIG   0.0000
  22 H            3.0136     6.5858     0.4831 H            1    LIG   0.0000
  23 H            2.6691     6.4625     2.0746 H            1    LIG   0.0000
  24 H            0.7041     6.8080     0.7232 H            1    LIG   0.0000
  25 H            0.6230     5.4342     1.6022 H            1    LIG   0.0000
  26 H           -0.0371     4.9499    -0.5979 H            1    LIG   0.0000
  27 H            1.3403     5.6044    -1.1820 H            1    LIG   0.0000
  28 H            0.9266     3.0161    -0.4687 H            1    LIG   0.0000
  29 H            2.2951     3.6645    -1.0798 H            1    LIG   0.0000
@<TRIPOS>BOND
   1        1        2 1
   2        2        3 ar
   3        3        4 1
   4        3        5 ar
   5        5        6 ar
   6        6        7 ar
   7        7        8 ar
   8        8        2 ar
   9        8        9 1
  10        9       10 1
  11       10       11 1
  12       11       12 1
  13       12       13 1
  14       13       14 1
  15       14        9 1
  16        1       15 1
  17        5       16 1
  18        6       17 1
  19        7       18 1
  20        9       19 1
  21       10       20 1
  22       10       21 1
  23       11       22 1
  24       11       23 1
  25       12       24 1
  26       12       25 1
  27       13       26 1
  28       13       27 1
  29       14       28 1
  30       14       29 1

@<TRIPOS>MOLECULE

  29   30
SMALL
USER_CHARGES
@<TRIPOS>ATOM
   1 O1           1.0000     1.0000     1.0000 O.3          1    LIG   0.0000
   2 C2           2.3502     1.0000     1.0000 C.ar         1    LIG   0.0000
   3 C3           3.0458    -0.2047     1.0056 C.ar         1    LIG   0.0000
   4 Cl4          2.1443    -1.7398     1.0133 Cl           1    LIG   0.0000
   5 C5           4.4367    -0.2241     1.0072 C.ar         1    LIG   0.0000
   6 C6           5.1277     0.9831     1.0017 C.ar         1    LIG   0.0000
   7 C7           4.4491     2.1974     0.9949 C.ar         1    LIG   0.0000
   8 C8           3.0580     2.1979     0.9942 C.ar         1    LIG   0.0000
   9 C9           2.3124     3.5198     0.9875 C.3          1    LIG   0.0000
  10 C10          2.6753     4.3352     2.2198 C.3          1    LIG   0.0000
  11 C11          1.9837     5.6923     2.2262 C.3          1    LIG   0.0000
  12 C12          1.1443     5.9250     0.9794 C.3          1    LIG   0.0000
  13 C13          2.0072     5.6925    -0.2505 C.3          1    LIG   0.0000
  14 C14          2.6625     4.3199    -0.2570 C.3          1    LIG   0.0000
  15 H            0.5000     1.8660     0.9959 H            1    LIG   0.0000
  16 H            4.9323    -1.0926     1.0122 H            1    LIG   0.0000
  17 H            6.1277     0.9780     1.0026 H            1    LIG   0.0000
  18 H            4.9553     3.0598     0.9907 H            1    LIG   0.0000
  19 H            1.3288     3.3396     0.9935 H            1    LIG   0.0000
  20 H            3.6651     4.4766     2.2340 H            1    LIG   0.0000
  21 H            2.3993     3.8278     3.0361 H            1    LIG   0.0000
  22 H            2.6808     6.4072     2.2813 H            1    LIG   0.0000
  23 H            1.3883     5.7449     3.0279 H            1    LIG   0.0000
  24 H            0.8025     6.8648     0.9762 H            1    LIG   0.0000
  25 H            0.3722     5.2895     0.9720 H            1    LIG   0.0000
  26 H            1.4329     5.7767    -1.0648 H            1    LIG   0.0000
  27 H            2.7241     6.3893    -0.2747 H            1    LIG   0.0000
  28 H            2.3514     3.8167    -1.0632 H            1    LIG   0.0000
  29 H            3.6549     4.4354    -0.2986 H            1    LIG   0.0000
@<TRIPOS>BOND
   1        1        2 1
   2        2        3 ar
   3        3        4 1
   4        3        5 ar
   5        5        6 ar
   6        6        7 ar
   7        7        8 ar
   8        8        2 ar
   9        8        9 1
  10        9       10 1
  11       10       11 1
  12       11       12 1
  13       12       13 1
  14       13       14 1
  15       14        9 1
  16        1       15 1
  17        5       16 1
  18        6       17 1
  19        7       18 1
  20        9       19 1
  21       10       20 1
  22       10       21 1
  23       11       22 1
  24       11       23 1
  25       12       24 1
  26       12       25 1
  27       13       26 1
  28       13       27 1
  29       14       28 1
  30       14       29 1

@<TRIPOS>MOLECULE

  29   30
SMALL
USER_CHARGES
@<TRIPOS>ATOM
   1 O1           1.0000     1.0000     1.0000 O.3          1    LIG   0.0000
   2 C2           2.3502     1.0000     1.0000 C.ar         1    LIG   0.0000
   3 C3           3.0458    -0.2047     1.0056 C.ar         1    LIG   0.0000
   4 Cl4          2.1443    -1.7398     1.0133 Cl           1    LIG   0.0000
   5 C5           4.4367    -0.2241     1.0072 C.ar         1    LIG   0.0000
   6 C6           5.1277     0.9831     1.0017 C.ar         1    LIG   0.0000
   7 C7           4.4491     2.1974     0.9949 C.ar         1    LIG   0.0000
   8 C8           3.0580     2.1979     0.9942 C.ar         1    LIG   0.0000
   9 C9           2.3110     3.5222     0.9875 C.3          1    LIG   0.0000
  10 C10          3.2785     4.6665     0.7341 C.3          1    LIG   0.0000
  11 C11          2.5949     6.0238     0.8153 C.3          1    LIG   0.0000
  12 C12          1.1155     5.9005     1.1340 C.3          1    LIG   0.0000
  13 C13          0.9806     5.1048     2.4225 C.3          1    LIG   0.0000
  14 C14          1.6681     3.7477     2.3477 C.3          1    LIG   0.0000
  15 H            0.5000     1.8660     0.9959 H            1    LIG   0.0000
  16 H            4.9323    -1.0926     1.0122 H            1    LIG   0.0000
  17 H            6.1277     0.9780     1.0026 H            1    LIG   0.0000
  18 H            4.9553     3.0598     0.9907 H            1    LIG   0.0000
  19 H            1.6068     3.5105     0.2776 H            1    LIG   0.0000
  20 H            3.6735     4.5586    -0.1782 H            1    LIG   0.0000
  21 H            4.0064     4.6307     1.4189 H            1    LIG   0.0000
  22 H            2.6976     6.4895    -0.0637 H            1    LIG   0.0000
  23 H            3.0352     6.5641     1.5323 H            1    LIG   0.0000
  24 H            0.6460     5.4249     0.3901 H            1    LIG   0.0000
  25 H            0.7164     6.8097     1.2527 H            1    LIG   0.0000
  26 H            1.3901     5.6306     3.1680 H            1    LIG   0.0000
  27 H            0.0089     4.9616     2.6102 H            1    LIG   0.0000
  28 H            2.3757     3.7027     3.0529 H            1    LIG   0.0000
  29 H            0.9901     3.0307     2.5094 H            1    LIG   0.0000
@<TRIPOS>BOND
   1        1        2 1
   2        2        3 ar
   3        3        4 1
   4        3        5 ar
   5        5        6 ar
   6        6        7 ar
   7        7        8 ar
   8        8        2 ar
   9        8        9 1
  10        9       10 1
  11       10       11 1
  12       11       12 1
  13       12       13 1
  14       13       14 1
  15       14        9 1
  16        1       15 1
  17        5       16 1
  18        6       17 1
  19        7       18 1
  20        9       19 1
  21       10       20 1
  22       10       21 1
  23       11       22 1
  24       11       23 1
  25       12       24 1
  26       12       25 1
  27       13       26 1
  28       13       27 1
  29       14       28 1
  30       14       29 1

@<TRIPOS>MOLECULE

  29   30
SMALL
USER_CHARGES
@<TRIPOS>ATOM
   1 O1           1.0000     1.0000     1.0000 O.3          1    LIG   0.0000
   2 C2           2.3502     1.0000     1.0000 C.ar         1    LIG   0.0000
   3 C3           3.0458    -0.2047     1.0056 C.ar         1    LIG   0.0000
   4 Cl4          2.1443    -1.7398     1.0133 Cl           1    LIG   0.0000
   5 C5           4.4367    -0.2241     1.0072 C.ar         1    LIG   0.0000
   6 C6           5.1277     0.9831     1.0017 C.ar         1    LIG   0.0000
   7 C7           4.4491     2.1974     0.9949 C.ar         1    LIG   0.0000
   8 C8           3.0580     2.1979     0.9942 C.ar         1    LIG   0.0000
   9 C9           2.3112     3.5220     0.9875 C.3          1    LIG   0.0000
  10 C10          2.7007     4.2925    -0.2646 C.3          1    LIG   0.0000
  11 C11          2.3919     5.7762    -0.1270 C.3          1    LIG   0.0000
  12 C12          1.3045     6.0309     0.9072 C.3          1    LIG   0.0000
  13 C13          1.7516     5.5834     2.2917 C.3          1    LIG   0.0000
  14 C14          2.6369     4.3487     2.2209 C.3          1    LIG   0.0000
  15 H            0.5000     1.8660     0.9959 H            1    LIG   0.0000
  16 H            4.9323    -1.0926     1.0122 H            1    LIG   0.0000
  17 H            6.1277     0.9780     1.0026 H            1    LIG   0.0000
  18 H            4.9553     3.0598     0.9907 H            1    LIG   0.0000
  19 H            1.3278     3.3415     0.9664 H            1    LIG   0.0000
  20 H            2.1914     3.9257    -1.0431 H            1    LIG   0.0000
  21 H            3.6813     4.1784    -0.4241 H            1    LIG   0.0000
  22 H            2.0861     6.1271    -1.0121 H            1    LIG   0.0000
  23 H            3.2237     6.2559     0.1523 H            1    LIG   0.0000
  24 H            0.4826     5.5232     0.6491 H            1    LIG   0.0000
  25 H            1.0984     7.0092     0.9306 H            1    LIG   0.0000
  26 H            2.2639     6.3259     2.7233 H            1    LIG   0.0000
  27 H            0.9434     5.3724     2.8415 H            1    LIG   0.0000
  28 H            3.5946     4.6336     2.1813 H            1    LIG   0.0000
  29 H            2.4885     3.7914     3.0379 H            1    LIG   0.0000
@<TRIPOS>BOND
   1        1        2 1
   2        2        3 ar
   3        3        4 1
   4        3        5 ar
   5        5        6 ar
   6        6        7 ar
   7        7        8 ar
   8        8        2 ar
   9        8        9 1
  10        9       10 1
  11       10       11 1
  12       11       12 1
  13       12       13 1
  14       13       14 1
  15       14        9 1
  16        1       15 1
  17        5       16 1
  18        6       17 1
  19        7       18 1
  20        9       19 1
  21       10       20 1
  22       10       21 1
  23       11       22 1
  24       11       23 1
  25       12       24 1
  26       12       25 1
  27       13       26 1
  28       13       27 1
  29       14       28 1
  30       14       29 1

