@<TRIPOS>MOLECULE
*****
 29 30 0 0 0
SMALL
USER_CHARGES

@<TRIPOS>ATOM
      1 O1          1.0000    1.0000    1.0000 O.3     1  LIG1        0.0000
      2 C2          2.3502    1.0000    1.0000 C.ar    1  LIG1        0.0000
      3 C3          3.0458   -0.2047    1.0056 C.ar    1  LIG1        0.0000
      4 Cl4         2.1443   -1.7398    1.0133 Cl      1  LIG1        0.0000
      5 C5          4.4367   -0.2241    1.0072 C.ar    1  LIG1        0.0000
      6 C6          5.1277    0.9831    1.0017 C.ar    1  LIG1        0.0000
      7 C7          4.4491    2.1974    0.9949 C.ar    1  LIG1        0.0000
      8 C8          3.0580    2.1979    0.9942 C.ar    1  LIG1        0.0000
      9 C9          2.3124    3.5198    0.9875 C.3     1  LIG1        0.0000
     10 C10         3.2782    4.6703    1.2298 C.3     1  LIG1        0.0000
     11 C11         2.5754    6.0209    1.1823 C.3     1  LIG1        0.0000
     12 C12         1.0959    5.8971    0.8525 C.3     1  LIG1        0.0000
     13 C13         0.9381    5.0886   -0.4255 C.3     1  LIG1        0.0000
     14 C14         1.6167    3.7296   -0.3479 C.3     1  LIG1        0.0000
     15 H           0.5000    1.8660    0.9959 H       1  LIG1        0.0000
     16 H           4.9323   -1.0926    1.0122 H       1  LIG1        0.0000
     17 H           6.1277    0.9780    1.0026 H       1  LIG1        0.0000
     18 H           4.9553    3.0598    0.9907 H       1  LIG1        0.0000
     19 H           1.6263    3.5110    1.7150 H       1  LIG1        0.0000
     20 H           3.9881    4.6502    0.5258 H       1  LIG1        0.0000
     21 H           3.6982    4.5558    2.1301 H       1  LIG1        0.0000
     22 H           3.0136    6.5858    0.4831 H       1  LIG1        0.0000
     23 H           2.6691    6.4625    2.0746 H       1  LIG1        0.0000
     24 H           0.7041    6.8080    0.7232 H       1  LIG1        0.0000
     25 H           0.6230    5.4342    1.6022 H       1  LIG1        0.0000
     26 H          -0.0371    4.9499   -0.5979 H       1  LIG1        0.0000
     27 H           1.3403    5.6044   -1.1820 H       1  LIG1        0.0000
     28 H           0.9266    3.0161   -0.4687 H       1  LIG1        0.0000
     29 H           2.2951    3.6645   -1.0798 H       1  LIG1        0.0000
@<TRIPOS>BOND
     1     1     2    1
     2     2     3   ar
     3     3     4    1
     4     3     5   ar
     5     5     6   ar
     6     6     7   ar
     7     7     8   ar
     8     8     2   ar
     9     8     9    1
    10     9    10    1
    11    10    11    1
    12    11    12    1
    13    12    13    1
    14    13    14    1
    15    14     9    1
    16     1    15    1
    17     5    16    1
    18     6    17    1
    19     7    18    1
    20     9    19    1
    21    10    20    1
    22    10    21    1
    23    11    22    1
    24    11    23    1
    25    12    24    1
    26    12    25    1
    27    13    26    1
    28    13    27    1
    29    14    28    1
    30    14    29    1
