@<TRIPOS>MOLECULE
*****
 29 30 0 0 0
SMALL
USER_CHARGES

@<TRIPOS>ATOM
      1 O1          1.0000    1.0000    1.0000 O.3     1  LIG1        0.0000
      2 C2          2.3502    1.0000    1.0000 C.ar    1  LIG1        0.0000
      3 C3          3.0458   -0.2047    1.0056 C.ar    1  LIG1        0.0000
      4 Cl4         2.1443   -1.7398    1.0133 Cl      1  LIG1        0.0000
      5 C5          4.4367   -0.2241    1.0072 C.ar    1  LIG1        0.0000
      6 C6          5.1277    0.9831    1.0017 C.ar    1  LIG1        0.0000
      7 C7          4.4491    2.1974    0.9949 C.ar    1  LIG1        0.0000
      8 C8          3.0580    2.1979    0.9942 C.ar    1  LIG1        0.0000
      9 C9          2.3110    3.5222    0.9875 C.3     1  LIG1        0.0000
     10 C10         3.2785    4.6665    0.7341 C.3     1  LIG1        0.0000
     11 C11         2.5949    6.0238    0.8153 C.3     1  LIG1        0.0000
     12 C12         1.1155    5.9005    1.1340 C.3     1  LIG1        0.0000
     13 C13         0.9806    5.1048    2.4225 C.3     1  LIG1        0.0000
     14 C14         1.6681    3.7477    2.3477 C.3     1  LIG1        0.0000
     15 H           0.5000    1.8660    0.9959 H       1  LIG1        0.0000
     16 H           4.9323   -1.0926    1.0122 H       1  LIG1        0.0000
     17 H           6.1277    0.9780    1.0026 H       1  LIG1        0.0000
     18 H           4.9553    3.0598    0.9907 H       1  LIG1        0.0000
     19 H           1.6068    3.5105    0.2776 H       1  LIG1        0.0000
     20 H           3.6735    4.5586   -0.1782 H       1  LIG1        0.0000
     21 H           4.0064    4.6307    1.4189 H       1  LIG1        0.0000
     22 H           2.6976    6.4895   -0.0637 H       1  LIG1        0.0000
     23 H           3.0352    6.5641    1.5323 H       1  LIG1        0.0000
     24 H           0.6460    5.4249    0.3901 H       1  LIG1        0.0000
     25 H           0.7164    6.8097    1.2527 H       1  LIG1        0.0000
     26 H           1.3901    5.6306    3.1680 H       1  LIG1        0.0000
     27 H           0.0089    4.9616    2.6102 H       1  LIG1        0.0000
     28 H           2.3757    3.7027    3.0529 H       1  LIG1        0.0000
     29 H           0.9901    3.0307    2.5094 H       1  LIG1        0.0000
@<TRIPOS>BOND
     1     1     2    1
     2     2     3   ar
     3     3     4    1
     4     3     5   ar
     5     5     6   ar
     6     6     7   ar
     7     7     8   ar
     8     8     2   ar
     9     8     9    1
    10     9    10    1
    11    10    11    1
    12    11    12    1
    13    12    13    1
    14    13    14    1
    15    14     9    1
    16     1    15    1
    17     5    16    1
    18     6    17    1
    19     7    18    1
    20     9    19    1
    21    10    20    1
    22    10    21    1
    23    11    22    1
    24    11    23    1
    25    12    24    1
    26    12    25    1
    27    13    26    1
    28    13    27    1
    29    14    28    1
    30    14    29    1
