@<TRIPOS>MOLECULE
*****
 29 30 0 0 0
SMALL
USER_CHARGES

@<TRIPOS>ATOM
      1 O1          1.0000    1.0000    1.0000 O.3     1  LIG1        0.0000
      2 C2          2.3502    1.0000    1.0000 C.ar    1  LIG1        0.0000
      3 C3          3.0458   -0.2047    1.0056 C.ar    1  LIG1        0.0000
      4 Cl4         2.1443   -1.7398    1.0133 Cl      1  LIG1        0.0000
      5 C5          4.4367   -0.2241    1.0072 C.ar    1  LIG1        0.0000
      6 C6          5.1277    0.9831    1.0017 C.ar    1  LIG1        0.0000
      7 C7          4.4491    2.1974    0.9949 C.ar    1  LIG1        0.0000
      8 C8          3.0580    2.1979    0.9942 C.ar    1  LIG1        0.0000
      9 C9          2.3124    3.5198    0.9875 C.3     1  LIG1        0.0000
     10 C10         2.6753    4.3352    2.2198 C.3     1  LIG1        0.0000
     11 C11         1.9837    5.6923    2.2262 C.3     1  LIG1        0.0000
     12 C12         1.1443    5.9250    0.9794 C.3     1  LIG1        0.0000
     13 C13         2.0072    5.6925   -0.2505 C.3     1  LIG1        0.0000
     14 C14         2.6625    4.3199   -0.2570 C.3     1  LIG1        0.0000
     15 H           0.5000    1.8660    0.9959 H       1  LIG1        0.0000
     16 H           4.9323   -1.0926    1.0122 H       1  LIG1        0.0000
     17 H           6.1277    0.9780    1.0026 H       1  LIG1        0.0000
     18 H           4.9553    3.0598    0.9907 H       1  LIG1        0.0000
     19 H           1.3288    3.3396    0.9935 H       1  LIG1        0.0000
     20 H           3.6651    4.4766    2.2340 H       1  LIG1        0.0000
     21 H           2.3993    3.8278    3.0361 H       1  LIG1        0.0000
     22 H           2.6808    6.4072    2.2813 H       1  LIG1        0.0000
     23 H           1.3883    5.7449    3.0279 H       1  LIG1        0.0000
     24 H           0.8025    6.8648    0.9762 H       1  LIG1        0.0000
     25 H           0.3722    5.2895    0.9720 H       1  LIG1        0.0000
     26 H           1.4329    5.7767   -1.0648 H       1  LIG1        0.0000
     27 H           2.7241    6.3893   -0.2747 H       1  LIG1        0.0000
     28 H           2.3514    3.8167   -1.0632 H       1  LIG1        0.0000
     29 H           3.6549    4.4354   -0.2986 H       1  LIG1        0.0000
@<TRIPOS>BOND
     1     1     2    1
     2     2     3   ar
     3     3     4    1
     4     3     5   ar
     5     5     6   ar
     6     6     7   ar
     7     7     8   ar
     8     8     2   ar
     9     8     9    1
    10     9    10    1
    11    10    11    1
    12    11    12    1
    13    12    13    1
    14    13    14    1
    15    14     9    1
    16     1    15    1
    17     5    16    1
    18     6    17    1
    19     7    18    1
    20     9    19    1
    21    10    20    1
    22    10    21    1
    23    11    22    1
    24    11    23    1
    25    12    24    1
    26    12    25    1
    27    13    26    1
    28    13    27    1
    29    14    28    1
    30    14    29    1
