@<TRIPOS>MOLECULE

  27   28
SMALL
USER_CHARGES
@<TRIPOS>ATOM
   1 C1          -0.3172     6.2540     3.6379 C.3          1    LIG   0.0000
   2 C2           0.0180     4.9303     2.9704 C.ar         1    LIG   0.0000
   3 C3          -0.6636     3.7789     3.3485 C.ar         1    LIG   0.0000
   4 C4          -0.3647     2.5631     2.7429 C.ar         1    LIG   0.0000
   5 C5           0.6204     2.5177     1.7617 C.ar         1    LIG   0.0000
   6 S6           1.0000     1.0000     1.0000 S.3          1    LIG   0.0000
   7 C7           2.7399     1.0000     1.0000 C.2          1    LIG   0.0000
   8 C8           3.5210     1.9976     1.5007 C.2          1    LIG   0.0000
   9 C9           4.8504     1.5717     1.2920 C.2          1    LIG   0.0000
  10 C10          4.7604     0.3580     0.6792 C.2          1    LIG   0.0000
  11 C11          5.9403    -0.4983     0.2501 C.3          1    LIG   0.0000
  12 O12          6.3062    -1.3665     1.3125 O.3          1    LIG   0.0000
  13 O13          3.4988     0.0408     0.5179 O.2          1    LIG   0.0000
  14 C14          1.3072     3.6645     1.3770 C.ar         1    LIG   0.0000
  15 C15          1.0014     4.8759     1.9885 C.ar         1    LIG   0.0000
  16 H            0.2588     6.9759     3.2544 H            1    LIG   0.0000
  17 H           -1.2792     6.4743     3.4769 H            1    LIG   0.0000
  18 H           -0.1516     6.1826     4.6215 H            1    LIG   0.0000
  19 H           -1.3689     3.8250     4.0559 H            1    LIG   0.0000
  20 H           -0.8521     1.7315     3.0095 H            1    LIG   0.0000
  21 H            3.2171     2.8503     1.9257 H            1    LIG   0.0000
  22 H            5.6863     2.0601     1.5424 H            1    LIG   0.0000
  23 H            5.6851    -1.0404    -0.5505 H            1    LIG   0.0000
  24 H            6.7143     0.0917     0.0202 H            1    LIG   0.0000
  25 H            7.0826    -1.9300     1.0302 H            1    LIG   0.0000
  26 H            2.0123     3.6186     0.6694 H            1    LIG   0.0000
  27 H            1.4885     5.7076     1.7221 H            1    LIG   0.0000
@<TRIPOS>BOND
   1        1        2 1
   2        2        3 ar
   3        3        4 ar
   4        4        5 ar
   5        5        6 1
   6        6        7 1
   7        7        8 2
   8        8        9 1
   9        9       10 2
  10       10       11 1
  11       11       12 1
  12       10       13 1
  13       13        7 1
  14        5       14 ar
  15       14       15 ar
  16       15        2 ar
  17        1       16 1
  18        1       17 1
  19        1       18 1
  20        3       19 1
  21        4       20 1
  22        8       21 1
  23        9       22 1
  24       11       23 1
  25       11       24 1
  26       12       25 1
  27       14       26 1
  28       15       27 1

@<TRIPOS>MOLECULE

  27   28
SMALL
USER_CHARGES
@<TRIPOS>ATOM
   1 C1          -0.3152     6.2561     3.6346 C.3          1    LIG   0.0000
   2 C2           0.0191     4.9293     2.9728 C.ar         1    LIG   0.0000
   3 C3          -0.6641     4.5433     1.8250 C.ar         1    LIG   0.0000
   4 C4          -0.3647     3.3315     1.2117 C.ar         1    LIG   0.0000
   5 C5           0.6204     2.5177     1.7617 C.ar         1    LIG   0.0000
   6 S6           1.0000     1.0000     1.0000 S.3          1    LIG   0.0000
   7 C7           2.7399     1.0000     1.0000 C.2          1    LIG   0.0000
   8 C8           3.5210     1.9976     1.5007 C.2          1    LIG   0.0000
   9 C9           4.8504     1.5717     1.2920 C.2          1    LIG   0.0000
  10 C10          4.7604     0.3580     0.6792 C.2          1    LIG   0.0000
  11 C11          5.9403    -0.4983     0.2501 C.3          1    LIG   0.0000
  12 O12          6.3062    -1.3665     1.3125 O.3          1    LIG   0.0000
  13 O13          3.4988     0.0408     0.5179 O.2          1    LIG   0.0000
  14 C14          1.3092     2.8959     2.9095 C.ar         1    LIG   0.0000
  15 C15          1.0027     4.1097     3.5159 C.ar         1    LIG   0.0000
  16 H            0.2620     6.3809     4.4416 H            1    LIG   0.0000
  17 H           -0.1506     7.0016     2.9887 H            1    LIG   0.0000
  18 H           -1.2768     6.2589     3.9088 H            1    LIG   0.0000
  19 H           -1.3709     5.1371     1.4404 H            1    LIG   0.0000
  20 H           -0.8517     3.0486     0.3854 H            1    LIG   0.0000
  21 H            3.2171     2.8503     1.9257 H            1    LIG   0.0000
  22 H            5.6863     2.0601     1.5424 H            1    LIG   0.0000
  23 H            5.6851    -1.0404    -0.5505 H            1    LIG   0.0000
  24 H            6.7143     0.0917     0.0202 H            1    LIG   0.0000
  25 H            7.0826    -1.9300     1.0302 H            1    LIG   0.0000
  26 H            2.0161     2.3023     3.2941 H            1    LIG   0.0000
  27 H            1.4895     4.3929     4.3422 H            1    LIG   0.0000
@<TRIPOS>BOND
   1        1        2 1
   2        2        3 ar
   3        3        4 ar
   4        4        5 ar
   5        5        6 1
   6        6        7 1
   7        7        8 2
   8        8        9 1
   9        9       10 2
  10       10       11 1
  11       11       12 1
  12       10       13 1
  13       13        7 1
  14        5       14 ar
  15       14       15 ar
  16       15        2 ar
  17        1       16 1
  18        1       17 1
  19        1       18 1
  20        3       19 1
  21        4       20 1
  22        8       21 1
  23        9       22 1
  24       11       23 1
  25       11       24 1
  26       12       25 1
  27       14       26 1
  28       15       27 1

@<TRIPOS>MOLECULE

  27   28
SMALL
USER_CHARGES
@<TRIPOS>ATOM
   1 C1          -0.3170     6.2551     3.6358 C.3          1    LIG   0.0000
   2 C2           0.0191     4.9300     2.9714 C.ar         1    LIG   0.0000
   3 C3          -1.0084     4.0922     2.5523 C.ar         1    LIG   0.0000
   4 C4          -0.7110     2.8781     1.9426 C.ar         1    LIG   0.0000
   5 C5           0.6204     2.5177     1.7617 C.ar         1    LIG   0.0000
   6 S6           1.0000     1.0000     1.0000 S.3          1    LIG   0.0000
   7 C7           2.7399     1.0000     1.0000 C.2          1    LIG   0.0000
   8 C8           3.5210     1.3198    -0.0694 C.2          1    LIG   0.0000
   9 C9           4.8504     1.1883     0.3863 C.2          1    LIG   0.0000
  10 C10          4.7604     0.7955     1.6879 C.2          1    LIG   0.0000
  11 C11          5.9403     0.5217     2.6058 C.3          1    LIG   0.0000
  12 O12          6.3062     1.7187     3.2763 O.3          1    LIG   0.0000
  13 O13          3.4988     0.6918     2.0284 O.2          1    LIG   0.0000
  14 C14          1.6547     3.3496     2.1776 C.ar         1    LIG   0.0000
  15 C15          1.3474     4.5619     2.7866 C.ar         1    LIG   0.0000
  16 H            0.5288     6.7323     3.8744 H            1    LIG   0.0000
  17 H           -0.8509     6.8182     3.0051 H            1    LIG   0.0000
  18 H           -0.8499     6.0866     4.4650 H            1    LIG   0.0000
  19 H           -1.9613     4.3627     2.6892 H            1    LIG   0.0000
  20 H           -1.4453     2.2715     1.6379 H            1    LIG   0.0000
  21 H            3.2171     1.5903    -0.9830 H            1    LIG   0.0000
  22 H            5.6863     1.3500    -0.1382 H            1    LIG   0.0000
  23 H            5.6851    -0.1727     3.2786 H            1    LIG   0.0000
  24 H            6.7143     0.1928     2.0646 H            1    LIG   0.0000
  25 H            7.0826     1.5385     3.8802 H            1    LIG   0.0000
  26 H            2.6077     3.0794     2.0405 H            1    LIG   0.0000
  27 H            2.0815     5.1687     3.0914 H            1    LIG   0.0000
@<TRIPOS>BOND
   1        1        2 1
   2        2        3 ar
   3        3        4 ar
   4        4        5 ar
   5        5        6 1
   6        6        7 1
   7        7        8 2
   8        8        9 1
   9        9       10 2
  10       10       11 1
  11       11       12 1
  12       10       13 1
  13       13        7 1
  14        5       14 ar
  15       14       15 ar
  16       15        2 ar
  17        1       16 1
  18        1       17 1
  19        1       18 1
  20        3       19 1
  21        4       20 1
  22        8       21 1
  23        9       22 1
  24       11       23 1
  25       11       24 1
  26       12       25 1
  27       14       26 1
  28       15       27 1

@<TRIPOS>MOLECULE

  27   28
SMALL
USER_CHARGES
@<TRIPOS>ATOM
   1 C1          -0.3157     6.2535     3.6397 C.3          1    LIG   0.0000
   2 C2           0.0165     4.9299     2.9703 C.ar         1    LIG   0.0000
   3 C3           0.1682     3.7868     3.7471 C.ar         1    LIG   0.0000
   4 C4           0.4712     2.5709     3.1438 C.ar         1    LIG   0.0000
   5 C5           0.6204     2.5177     1.7617 C.ar         1    LIG   0.0000
   6 S6           1.0000     1.0000     1.0000 S.3          1    LIG   0.0000
   7 C7           2.7399     1.0000     1.0000 C.2          1    LIG   0.0000
   8 C8           3.5210     1.3198    -0.0694 C.2          1    LIG   0.0000
   9 C9           4.8504     1.1883     0.3863 C.2          1    LIG   0.0000
  10 C10          4.7604     0.7955     1.6879 C.2          1    LIG   0.0000
  11 C11          5.9403     0.5217     2.6058 C.3          1    LIG   0.0000
  12 O12          6.3062     1.7187     3.2763 O.3          1    LIG   0.0000
  13 O13          3.4988     0.6918     2.0284 O.2          1    LIG   0.0000
  14 C14          0.4703     3.6561     0.9767 C.ar         1    LIG   0.0000
  15 C15          0.1673     4.8677     1.5892 C.ar         1    LIG   0.0000
  16 H           -0.3898     6.9690     2.9450 H            1    LIG   0.0000
  17 H           -1.1846     6.1714     4.1277 H            1    LIG   0.0000
  18 H            0.4089     6.4909     4.2867 H            1    LIG   0.0000
  19 H            0.0593     3.8389     4.7398 H            1    LIG   0.0000
  20 H            0.5805     1.7449     3.6968 H            1    LIG   0.0000
  21 H            3.2171     1.5903    -0.9830 H            1    LIG   0.0000
  22 H            5.6863     1.3500    -0.1382 H            1    LIG   0.0000
  23 H            5.6851    -0.1727     3.2786 H            1    LIG   0.0000
  24 H            6.7143     0.1928     2.0646 H            1    LIG   0.0000
  25 H            7.0826     1.5385     3.8802 H            1    LIG   0.0000
  26 H            0.5788     3.6041    -0.0161 H            1    LIG   0.0000
  27 H            0.0579     5.6939     1.0365 H            1    LIG   0.0000
@<TRIPOS>BOND
   1        1        2 1
   2        2        3 ar
   3        3        4 ar
   4        4        5 ar
   5        5        6 1
   6        6        7 1
   7        7        8 2
   8        8        9 1
   9        9       10 2
  10       10       11 1
  11       11       12 1
  12       10       13 1
  13       13        7 1
  14        5       14 ar
  15       14       15 ar
  16       15        2 ar
  17        1       16 1
  18        1       17 1
  19        1       18 1
  20        3       19 1
  21        4       20 1
  22        8       21 1
  23        9       22 1
  24       11       23 1
  25       11       24 1
  26       12       25 1
  27       14       26 1
  28       15       27 1

@<TRIPOS>MOLECULE

  27   28
SMALL
USER_CHARGES
@<TRIPOS>ATOM
   1 C1          -0.3152     6.2561     3.6346 C.3          1    LIG   0.0000
   2 C2           0.0191     4.9293     2.9728 C.ar         1    LIG   0.0000
   3 C3          -0.6641     4.5433     1.8250 C.ar         1    LIG   0.0000
   4 C4          -0.3647     3.3315     1.2117 C.ar         1    LIG   0.0000
   5 C5           0.6204     2.5177     1.7617 C.ar         1    LIG   0.0000
   6 S6           1.0000     1.0000     1.0000 S.3          1    LIG   0.0000
   7 C7           2.7399     1.0000     1.0000 C.2          1    LIG   0.0000
   8 C8           3.5210     1.3198    -0.0694 C.2          1    LIG   0.0000
   9 C9           4.8504     1.1883     0.3863 C.2          1    LIG   0.0000
  10 C10          4.7604     0.7955     1.6879 C.2          1    LIG   0.0000
  11 C11          5.9403     0.5217     2.6058 C.3          1    LIG   0.0000
  12 O12          7.1516     0.7360     1.8963 O.3          1    LIG   0.0000
  13 O13          3.4988     0.6918     2.0284 O.2          1    LIG   0.0000
  14 C14          1.3092     2.8959     2.9095 C.ar         1    LIG   0.0000
  15 C15          1.0027     4.1097     3.5159 C.ar         1    LIG   0.0000
  16 H            0.2620     6.3809     4.4416 H            1    LIG   0.0000
  17 H           -0.1506     7.0016     2.9887 H            1    LIG   0.0000
  18 H           -1.2768     6.2589     3.9088 H            1    LIG   0.0000
  19 H           -1.3709     5.1371     1.4404 H            1    LIG   0.0000
  20 H           -0.8517     3.0486     0.3854 H            1    LIG   0.0000
  21 H            3.2171     1.5903    -0.9830 H            1    LIG   0.0000
  22 H            5.6863     1.3500    -0.1382 H            1    LIG   0.0000
  23 H            5.9011     1.1382     3.3921 H            1    LIG   0.0000
  24 H            5.9030    -0.4260     2.9229 H            1    LIG   0.0000
  25 H            7.9280     0.5558     2.5003 H            1    LIG   0.0000
  26 H            2.0161     2.3023     3.2941 H            1    LIG   0.0000
  27 H            1.4895     4.3929     4.3422 H            1    LIG   0.0000
@<TRIPOS>BOND
   1        1        2 1
   2        2        3 ar
   3        3        4 ar
   4        4        5 ar
   5        5        6 1
   6        6        7 1
   7        7        8 2
   8        8        9 1
   9        9       10 2
  10       10       11 1
  11       11       12 1
  12       10       13 1
  13       13        7 1
  14        5       14 ar
  15       14       15 ar
  16       15        2 ar
  17        1       16 1
  18        1       17 1
  19        1       18 1
  20        3       19 1
  21        4       20 1
  22        8       21 1
  23        9       22 1
  24       11       23 1
  25       11       24 1
  26       12       25 1
  27       14       26 1
  28       15       27 1

@<TRIPOS>MOLECULE

  27   28
SMALL
USER_CHARGES
@<TRIPOS>ATOM
   1 C1          -0.3170     6.2551     3.6358 C.3          1    LIG   0.0000
   2 C2           0.0191     4.9300     2.9714 C.ar         1    LIG   0.0000
   3 C3          -1.0084     4.0922     2.5523 C.ar         1    LIG   0.0000
   4 C4          -0.7110     2.8781     1.9426 C.ar         1    LIG   0.0000
   5 C5           0.6204     2.5177     1.7617 C.ar         1    LIG   0.0000
   6 S6           1.0000     1.0000     1.0000 S.3          1    LIG   0.0000
   7 C7           2.7399     1.0000     1.0000 C.2          1    LIG   0.0000
   8 C8           3.5210     1.9324     0.3864 C.2          1    LIG   0.0000
   9 C9           4.8504     1.5387     0.6509 C.2          1    LIG   0.0000
  10 C10          4.7604     0.4012     1.3956 C.2          1    LIG   0.0000
  11 C11          5.9403    -0.3986     1.9226 C.3          1    LIG   0.0000
  12 O12          5.4641    -1.5170     2.6566 O.3          1    LIG   0.0000
  13 O13          3.4988     0.1029     1.5897 O.2          1    LIG   0.0000
  14 C14          1.6547     3.3496     2.1776 C.ar         1    LIG   0.0000
  15 C15          1.3474     4.5619     2.7866 C.ar         1    LIG   0.0000
  16 H            0.5288     6.7323     3.8744 H            1    LIG   0.0000
  17 H           -0.8509     6.8182     3.0051 H            1    LIG   0.0000
  18 H           -0.8499     6.0866     4.4650 H            1    LIG   0.0000
  19 H           -1.9613     4.3627     2.6892 H            1    LIG   0.0000
  20 H           -1.4453     2.2715     1.6379 H            1    LIG   0.0000
  21 H            3.2171     2.7268    -0.1396 H            1    LIG   0.0000
  22 H            5.6863     1.9998     0.3531 H            1    LIG   0.0000
  23 H            6.4972    -0.7162     1.1552 H            1    LIG   0.0000
  24 H            6.4953     0.1804     2.5200 H            1    LIG   0.0000
  25 H            6.2404    -2.0432     3.0034 H            1    LIG   0.0000
  26 H            2.6077     3.0794     2.0405 H            1    LIG   0.0000
  27 H            2.0815     5.1687     3.0914 H            1    LIG   0.0000
@<TRIPOS>BOND
   1        1        2 1
   2        2        3 ar
   3        3        4 ar
   4        4        5 ar
   5        5        6 1
   6        6        7 1
   7        7        8 2
   8        8        9 1
   9        9       10 2
  10       10       11 1
  11       11       12 1
  12       10       13 1
  13       13        7 1
  14        5       14 ar
  15       14       15 ar
  16       15        2 ar
  17        1       16 1
  18        1       17 1
  19        1       18 1
  20        3       19 1
  21        4       20 1
  22        8       21 1
  23        9       22 1
  24       11       23 1
  25       11       24 1
  26       12       25 1
  27       14       26 1
  28       15       27 1

@<TRIPOS>MOLECULE

  27   28
SMALL
USER_CHARGES
@<TRIPOS>ATOM
   1 C1          -0.3170     6.2551     3.6358 C.3          1    LIG   0.0000
   2 C2           0.0191     4.9300     2.9714 C.ar         1    LIG   0.0000
   3 C3          -1.0084     4.0922     2.5523 C.ar         1    LIG   0.0000
   4 C4          -0.7110     2.8781     1.9426 C.ar         1    LIG   0.0000
   5 C5           0.6204     2.5177     1.7617 C.ar         1    LIG   0.0000
   6 S6           1.0000     1.0000     1.0000 S.3          1    LIG   0.0000
   7 C7           2.7399     1.0000     1.0000 C.2          1    LIG   0.0000
   8 C8           3.5210     0.3337     1.8955 C.2          1    LIG   0.0000
   9 C9           4.8504     0.6132     1.5123 C.2          1    LIG   0.0000
  10 C10          4.7604     1.4274     0.4235 C.2          1    LIG   0.0000
  11 C11          5.9403     1.9987    -0.3453 C.3          1    LIG   0.0000
  12 O12          6.3062     1.1032    -1.3848 O.3          1    LIG   0.0000
  13 O13          3.4988     1.6413     0.1390 O.2          1    LIG   0.0000
  14 C14          1.6547     3.3496     2.1776 C.ar         1    LIG   0.0000
  15 C15          1.3474     4.5619     2.7866 C.ar         1    LIG   0.0000
  16 H            0.5288     6.7323     3.8744 H            1    LIG   0.0000
  17 H           -0.8509     6.8182     3.0051 H            1    LIG   0.0000
  18 H           -0.8499     6.0866     4.4650 H            1    LIG   0.0000
  19 H           -1.9613     4.3627     2.6892 H            1    LIG   0.0000
  20 H           -1.4453     2.2715     1.6379 H            1    LIG   0.0000
  21 H            3.2171    -0.2329     2.6615 H            1    LIG   0.0000
  22 H            5.6863     0.2818     1.9499 H            1    LIG   0.0000
  23 H            5.6851     2.8813    -0.7401 H            1    LIG   0.0000
  24 H            6.7143     2.1226     0.2757 H            1    LIG   0.0000
  25 H            7.0826     1.4791    -1.8907 H            1    LIG   0.0000
  26 H            2.6077     3.0794     2.0405 H            1    LIG   0.0000
  27 H            2.0815     5.1687     3.0914 H            1    LIG   0.0000
@<TRIPOS>BOND
   1        1        2 1
   2        2        3 ar
   3        3        4 ar
   4        4        5 ar
   5        5        6 1
   6        6        7 1
   7        7        8 2
   8        8        9 1
   9        9       10 2
  10       10       11 1
  11       11       12 1
  12       10       13 1
  13       13        7 1
  14        5       14 ar
  15       14       15 ar
  16       15        2 ar
  17        1       16 1
  18        1       17 1
  19        1       18 1
  20        3       19 1
  21        4       20 1
  22        8       21 1
  23        9       22 1
  24       11       23 1
  25       11       24 1
  26       12       25 1
  27       14       26 1
  28       15       27 1

@<TRIPOS>MOLECULE

  27   28
SMALL
USER_CHARGES
@<TRIPOS>ATOM
   1 C1          -0.3157     6.2535     3.6397 C.3          1    LIG   0.0000
   2 C2           0.0165     4.9299     2.9703 C.ar         1    LIG   0.0000
   3 C3           0.1682     3.7868     3.7471 C.ar         1    LIG   0.0000
   4 C4           0.4712     2.5709     3.1438 C.ar         1    LIG   0.0000
   5 C5           0.6204     2.5177     1.7617 C.ar         1    LIG   0.0000
   6 S6           1.0000     1.0000     1.0000 S.3          1    LIG   0.0000
   7 C7           2.7399     1.0000     1.0000 C.2          1    LIG   0.0000
   8 C8           3.5210     0.3337     1.8955 C.2          1    LIG   0.0000
   9 C9           4.8504     0.6132     1.5123 C.2          1    LIG   0.0000
  10 C10          4.7604     1.4274     0.4235 C.2          1    LIG   0.0000
  11 C11          5.9403     1.9987    -0.3453 C.3          1    LIG   0.0000
  12 O12          6.3062     1.1032    -1.3848 O.3          1    LIG   0.0000
  13 O13          3.4988     1.6413     0.1390 O.2          1    LIG   0.0000
  14 C14          0.4703     3.6561     0.9767 C.ar         1    LIG   0.0000
  15 C15          0.1673     4.8677     1.5892 C.ar         1    LIG   0.0000
  16 H           -0.3898     6.9690     2.9450 H            1    LIG   0.0000
  17 H           -1.1846     6.1714     4.1277 H            1    LIG   0.0000
  18 H            0.4089     6.4909     4.2867 H            1    LIG   0.0000
  19 H            0.0593     3.8389     4.7398 H            1    LIG   0.0000
  20 H            0.5805     1.7449     3.6968 H            1    LIG   0.0000
  21 H            3.2171    -0.2329     2.6615 H            1    LIG   0.0000
  22 H            5.6863     0.2818     1.9499 H            1    LIG   0.0000
  23 H            5.6851     2.8813    -0.7401 H            1    LIG   0.0000
  24 H            6.7143     2.1226     0.2757 H            1    LIG   0.0000
  25 H            7.0826     1.4791    -1.8907 H            1    LIG   0.0000
  26 H            0.5788     3.6041    -0.0161 H            1    LIG   0.0000
  27 H            0.0579     5.6939     1.0365 H            1    LIG   0.0000
@<TRIPOS>BOND
   1        1        2 1
   2        2        3 ar
   3        3        4 ar
   4        4        5 ar
   5        5        6 1
   6        6        7 1
   7        7        8 2
   8        8        9 1
   9        9       10 2
  10       10       11 1
  11       11       12 1
  12       10       13 1
  13       13        7 1
  14        5       14 ar
  15       14       15 ar
  16       15        2 ar
  17        1       16 1
  18        1       17 1
  19        1       18 1
  20        3       19 1
  21        4       20 1
  22        8       21 1
  23        9       22 1
  24       11       23 1
  25       11       24 1
  26       12       25 1
  27       14       26 1
  28       15       27 1

@<TRIPOS>MOLECULE

  27   28
SMALL
USER_CHARGES
@<TRIPOS>ATOM
   1 C1          -0.3172     6.2540     3.6379 C.3          1    LIG   0.0000
   2 C2           0.0180     4.9303     2.9704 C.ar         1    LIG   0.0000
   3 C3          -0.6636     3.7789     3.3485 C.ar         1    LIG   0.0000
   4 C4          -0.3647     2.5631     2.7429 C.ar         1    LIG   0.0000
   5 C5           0.6204     2.5177     1.7617 C.ar         1    LIG   0.0000
   6 S6           1.0000     1.0000     1.0000 S.3          1    LIG   0.0000
   7 C7           2.7399     1.0000     1.0000 C.2          1    LIG   0.0000
   8 C8           3.5210     0.3337     1.8955 C.2          1    LIG   0.0000
   9 C9           4.8504     0.6132     1.5123 C.2          1    LIG   0.0000
  10 C10          4.7604     1.4274     0.4235 C.2          1    LIG   0.0000
  11 C11          5.9403     1.9987    -0.3453 C.3          1    LIG   0.0000
  12 O12          6.3094     3.2500     0.2153 O.3          1    LIG   0.0000
  13 O13          3.4988     1.6413     0.1390 O.2          1    LIG   0.0000
  14 C14          1.3072     3.6645     1.3770 C.ar         1    LIG   0.0000
  15 C15          1.0014     4.8759     1.9885 C.ar         1    LIG   0.0000
  16 H            0.2588     6.9759     3.2544 H            1    LIG   0.0000
  17 H           -1.2792     6.4743     3.4769 H            1    LIG   0.0000
  18 H           -0.1516     6.1826     4.6215 H            1    LIG   0.0000
  19 H           -1.3689     3.8250     4.0559 H            1    LIG   0.0000
  20 H           -0.8521     1.7315     3.0095 H            1    LIG   0.0000
  21 H            3.2171    -0.2329     2.6615 H            1    LIG   0.0000
  22 H            5.6863     0.2818     1.9499 H            1    LIG   0.0000
  23 H            6.7132     1.3667    -0.2878 H            1    LIG   0.0000
  24 H            5.6840     2.1253    -1.3036 H            1    LIG   0.0000
  25 H            7.0858     3.6259    -0.2906 H            1    LIG   0.0000
  26 H            2.0123     3.6186     0.6694 H            1    LIG   0.0000
  27 H            1.4885     5.7076     1.7221 H            1    LIG   0.0000
@<TRIPOS>BOND
   1        1        2 1
   2        2        3 ar
   3        3        4 ar
   4        4        5 ar
   5        5        6 1
   6        6        7 1
   7        7        8 2
   8        8        9 1
   9        9       10 2
  10       10       11 1
  11       11       12 1
  12       10       13 1
  13       13        7 1
  14        5       14 ar
  15       14       15 ar
  16       15        2 ar
  17        1       16 1
  18        1       17 1
  19        1       18 1
  20        3       19 1
  21        4       20 1
  22        8       21 1
  23        9       22 1
  24       11       23 1
  25       11       24 1
  26       12       25 1
  27       14       26 1
  28       15       27 1

@<TRIPOS>MOLECULE

  27   28
SMALL
USER_CHARGES
@<TRIPOS>ATOM
   1 C1          -0.3152     6.2561     3.6346 C.3          1    LIG   0.0000
   2 C2           0.0191     4.9293     2.9728 C.ar         1    LIG   0.0000
   3 C3          -0.6641     4.5433     1.8250 C.ar         1    LIG   0.0000
   4 C4          -0.3647     3.3315     1.2117 C.ar         1    LIG   0.0000
   5 C5           0.6204     2.5177     1.7617 C.ar         1    LIG   0.0000
   6 S6           1.0000     1.0000     1.0000 S.3          1    LIG   0.0000
   7 C7           2.7399     1.0000     1.0000 C.2          1    LIG   0.0000
   8 C8           3.5210     0.3337     1.8955 C.2          1    LIG   0.0000
   9 C9           4.8504     0.6132     1.5123 C.2          1    LIG   0.0000
  10 C10          4.7604     1.4274     0.4235 C.2          1    LIG   0.0000
  11 C11          5.9403     1.9987    -0.3453 C.3          1    LIG   0.0000
  12 O12          6.3094     3.2500     0.2153 O.3          1    LIG   0.0000
  13 O13          3.4988     1.6413     0.1390 O.2          1    LIG   0.0000
  14 C14          1.3092     2.8959     2.9095 C.ar         1    LIG   0.0000
  15 C15          1.0027     4.1097     3.5159 C.ar         1    LIG   0.0000
  16 H            0.2620     6.3809     4.4416 H            1    LIG   0.0000
  17 H           -0.1506     7.0016     2.9887 H            1    LIG   0.0000
  18 H           -1.2768     6.2589     3.9088 H            1    LIG   0.0000
  19 H           -1.3709     5.1371     1.4404 H            1    LIG   0.0000
  20 H           -0.8517     3.0486     0.3854 H            1    LIG   0.0000
  21 H            3.2171    -0.2329     2.6615 H            1    LIG   0.0000
  22 H            5.6863     0.2818     1.9499 H            1    LIG   0.0000
  23 H            6.7132     1.3667    -0.2878 H            1    LIG   0.0000
  24 H            5.6840     2.1253    -1.3036 H            1    LIG   0.0000
  25 H            7.0858     3.6259    -0.2906 H            1    LIG   0.0000
  26 H            2.0161     2.3023     3.2941 H            1    LIG   0.0000
  27 H            1.4895     4.3929     4.3422 H            1    LIG   0.0000
@<TRIPOS>BOND
   1        1        2 1
   2        2        3 ar
   3        3        4 ar
   4        4        5 ar
   5        5        6 1
   6        6        7 1
   7        7        8 2
   8        8        9 1
   9        9       10 2
  10       10       11 1
  11       11       12 1
  12       10       13 1
  13       13        7 1
  14        5       14 ar
  15       14       15 ar
  16       15        2 ar
  17        1       16 1
  18        1       17 1
  19        1       18 1
  20        3       19 1
  21        4       20 1
  22        8       21 1
  23        9       22 1
  24       11       23 1
  25       11       24 1
  26       12       25 1
  27       14       26 1
  28       15       27 1

@<TRIPOS>MOLECULE

  27   28
SMALL
USER_CHARGES
@<TRIPOS>ATOM
   1 C1          -0.3157     6.2535     3.6397 C.3          1    LIG   0.0000
   2 C2           0.0165     4.9299     2.9703 C.ar         1    LIG   0.0000
   3 C3           0.1682     3.7868     3.7471 C.ar         1    LIG   0.0000
   4 C4           0.4712     2.5709     3.1438 C.ar         1    LIG   0.0000
   5 C5           0.6204     2.5177     1.7617 C.ar         1    LIG   0.0000
   6 S6           1.0000     1.0000     1.0000 S.3          1    LIG   0.0000
   7 C7           2.7399     1.0000     1.0000 C.2          1    LIG   0.0000
   8 C8           3.5210    -0.0861     1.2577 C.2          1    LIG   0.0000
   9 C9           4.8504     0.3744     1.1438 C.2          1    LIG   0.0000
  10 C10          4.7604     1.6980     0.8331 C.2          1    LIG   0.0000
  11 C11          5.9403     2.6298     0.6114 C.3          1    LIG   0.0000
  12 O12          5.4641     3.9318     0.3041 O.3          1    LIG   0.0000
  13 O13          3.4988     2.0447     0.7527 O.2          1    LIG   0.0000
  14 C14          0.4703     3.6561     0.9767 C.ar         1    LIG   0.0000
  15 C15          0.1673     4.8677     1.5892 C.ar         1    LIG   0.0000
  16 H           -0.3898     6.9690     2.9450 H            1    LIG   0.0000
  17 H           -1.1846     6.1714     4.1277 H            1    LIG   0.0000
  18 H            0.4089     6.4909     4.2867 H            1    LIG   0.0000
  19 H            0.0593     3.8389     4.7398 H            1    LIG   0.0000
  20 H            0.5805     1.7449     3.6968 H            1    LIG   0.0000
  21 H            3.2171    -1.0124     1.4803 H            1    LIG   0.0000
  22 H            5.6863    -0.1607     1.2660 H            1    LIG   0.0000
  23 H            6.4972     2.6658     1.4412 H            1    LIG   0.0000
  24 H            6.4953     2.2901    -0.1480 H            1    LIG   0.0000
  25 H            6.2404     4.5449     0.1582 H            1    LIG   0.0000
  26 H            0.5788     3.6041    -0.0161 H            1    LIG   0.0000
  27 H            0.0579     5.6939     1.0365 H            1    LIG   0.0000
@<TRIPOS>BOND
   1        1        2 1
   2        2        3 ar
   3        3        4 ar
   4        4        5 ar
   5        5        6 1
   6        6        7 1
   7        7        8 2
   8        8        9 1
   9        9       10 2
  10       10       11 1
  11       11       12 1
  12       10       13 1
  13       13        7 1
  14        5       14 ar
  15       14       15 ar
  16       15        2 ar
  17        1       16 1
  18        1       17 1
  19        1       18 1
  20        3       19 1
  21        4       20 1
  22        8       21 1
  23        9       22 1
  24       11       23 1
  25       11       24 1
  26       12       25 1
  27       14       26 1
  28       15       27 1

@<TRIPOS>MOLECULE

  27   28
SMALL
USER_CHARGES
@<TRIPOS>ATOM
   1 C1          -0.3152     6.2561     3.6346 C.3          1    LIG   0.0000
   2 C2           0.0191     4.9293     2.9728 C.ar         1    LIG   0.0000
   3 C3          -0.6641     4.5433     1.8250 C.ar         1    LIG   0.0000
   4 C4          -0.3647     3.3315     1.2117 C.ar         1    LIG   0.0000
   5 C5           0.6204     2.5177     1.7617 C.ar         1    LIG   0.0000
   6 S6           1.0000     1.0000     1.0000 S.3          1    LIG   0.0000
   7 C7           2.7399     1.0000     1.0000 C.2          1    LIG   0.0000
   8 C8           3.5210     1.0652     2.1143 C.2          1    LIG   0.0000
   9 C9           4.8504     1.0330     1.6411 C.2          1    LIG   0.0000
  10 C10          4.7604     0.9568     0.2836 C.2          1    LIG   0.0000
  11 C11          5.9403     0.9003    -0.6725 C.3          1    LIG   0.0000
  12 O12          6.3062    -0.4539    -0.8932 O.3          1    LIG   0.0000
  13 O13          3.4988     0.9379    -0.0718 O.2          1    LIG   0.0000
  14 C14          1.3092     2.8959     2.9095 C.ar         1    LIG   0.0000
  15 C15          1.0027     4.1097     3.5159 C.ar         1    LIG   0.0000
  16 H            0.2620     6.3809     4.4416 H            1    LIG   0.0000
  17 H           -0.1506     7.0016     2.9887 H            1    LIG   0.0000
  18 H           -1.2768     6.2589     3.9088 H            1    LIG   0.0000
  19 H           -1.3709     5.1371     1.4404 H            1    LIG   0.0000
  20 H           -0.8517     3.0486     0.3854 H            1    LIG   0.0000
  21 H            3.2171     1.1235     3.0653 H            1    LIG   0.0000
  22 H            5.6863     1.0604     2.1893 H            1    LIG   0.0000
  23 H            5.6851     1.3226    -1.5423 H            1    LIG   0.0000
  24 H            6.7143     1.3944    -0.2765 H            1    LIG   0.0000
  25 H            7.0826    -0.4911    -1.5224 H            1    LIG   0.0000
  26 H            2.0161     2.3023     3.2941 H            1    LIG   0.0000
  27 H            1.4895     4.3929     4.3422 H            1    LIG   0.0000
@<TRIPOS>BOND
   1        1        2 1
   2        2        3 ar
   3        3        4 ar
   4        4        5 ar
   5        5        6 1
   6        6        7 1
   7        7        8 2
   8        8        9 1
   9        9       10 2
  10       10       11 1
  11       11       12 1
  12       10       13 1
  13       13        7 1
  14        5       14 ar
  15       14       15 ar
  16       15        2 ar
  17        1       16 1
  18        1       17 1
  19        1       18 1
  20        3       19 1
  21        4       20 1
  22        8       21 1
  23        9       22 1
  24       11       23 1
  25       11       24 1
  26       12       25 1
  27       14       26 1
  28       15       27 1

