@<TRIPOS>MOLECULE
*****
 27 28 0 0 0
SMALL
USER_CHARGES

@<TRIPOS>ATOM
      1 C1         -0.3157    6.2535    3.6397 C.3     1  LIG1        0.0000
      2 C2          0.0165    4.9299    2.9703 C.ar    1  LIG1        0.0000
      3 C3          0.1682    3.7868    3.7471 C.ar    1  LIG1        0.0000
      4 C4          0.4712    2.5709    3.1438 C.ar    1  LIG1        0.0000
      5 C5          0.6204    2.5177    1.7617 C.ar    1  LIG1        0.0000
      6 S6          1.0000    1.0000    1.0000 S.3     1  LIG1        0.0000
      7 C7          2.7399    1.0000    1.0000 C.2     1  LIG1        0.0000
      8 C8          3.5210    0.3337    1.8955 C.2     1  LIG1        0.0000
      9 C9          4.8504    0.6132    1.5123 C.2     1  LIG1        0.0000
     10 C10         4.7604    1.4274    0.4235 C.2     1  LIG1        0.0000
     11 C11         5.9403    1.9987   -0.3453 C.3     1  LIG1        0.0000
     12 O12         6.3062    1.1032   -1.3848 O.3     1  LIG1        0.0000
     13 O13         3.4988    1.6413    0.1390 O.2     1  LIG1        0.0000
     14 C14         0.4703    3.6561    0.9767 C.ar    1  LIG1        0.0000
     15 C15         0.1673    4.8677    1.5892 C.ar    1  LIG1        0.0000
     16 H          -0.3898    6.9690    2.9450 H       1  LIG1        0.0000
     17 H          -1.1846    6.1714    4.1277 H       1  LIG1        0.0000
     18 H           0.4089    6.4909    4.2867 H       1  LIG1        0.0000
     19 H           0.0593    3.8389    4.7398 H       1  LIG1        0.0000
     20 H           0.5805    1.7449    3.6968 H       1  LIG1        0.0000
     21 H           3.2171   -0.2329    2.6615 H       1  LIG1        0.0000
     22 H           5.6863    0.2818    1.9499 H       1  LIG1        0.0000
     23 H           5.6851    2.8813   -0.7401 H       1  LIG1        0.0000
     24 H           6.7143    2.1226    0.2757 H       1  LIG1        0.0000
     25 H           7.0826    1.4791   -1.8907 H       1  LIG1        0.0000
     26 H           0.5788    3.6041   -0.0161 H       1  LIG1        0.0000
     27 H           0.0579    5.6939    1.0365 H       1  LIG1        0.0000
@<TRIPOS>BOND
     1     1     2    1
     2     2     3   ar
     3     3     4   ar
     4     4     5   ar
     5     5     6    1
     6     6     7    1
     7     7     8    2
     8     8     9    1
     9     9    10    2
    10    10    11    1
    11    11    12    1
    12    10    13    1
    13    13     7    1
    14     5    14   ar
    15    14    15   ar
    16    15     2   ar
    17     1    16    1
    18     1    17    1
    19     1    18    1
    20     3    19    1
    21     4    20    1
    22     8    21    1
    23     9    22    1
    24    11    23    1
    25    11    24    1
    26    12    25    1
    27    14    26    1
    28    15    27    1
