@<TRIPOS>MOLECULE
*****
 27 28 0 0 0
SMALL
USER_CHARGES

@<TRIPOS>ATOM
      1 C1         -0.3152    6.2561    3.6346 C.3     1  LIG1        0.0000
      2 C2          0.0191    4.9293    2.9728 C.ar    1  LIG1        0.0000
      3 C3         -0.6641    4.5433    1.8250 C.ar    1  LIG1        0.0000
      4 C4         -0.3647    3.3315    1.2117 C.ar    1  LIG1        0.0000
      5 C5          0.6204    2.5177    1.7617 C.ar    1  LIG1        0.0000
      6 S6          1.0000    1.0000    1.0000 S.3     1  LIG1        0.0000
      7 C7          2.7399    1.0000    1.0000 C.2     1  LIG1        0.0000
      8 C8          3.5210    1.3198   -0.0694 C.2     1  LIG1        0.0000
      9 C9          4.8504    1.1883    0.3863 C.2     1  LIG1        0.0000
     10 C10         4.7604    0.7955    1.6879 C.2     1  LIG1        0.0000
     11 C11         5.9403    0.5217    2.6058 C.3     1  LIG1        0.0000
     12 O12         7.1516    0.7360    1.8963 O.3     1  LIG1        0.0000
     13 O13         3.4988    0.6918    2.0284 O.2     1  LIG1        0.0000
     14 C14         1.3092    2.8959    2.9095 C.ar    1  LIG1        0.0000
     15 C15         1.0027    4.1097    3.5159 C.ar    1  LIG1        0.0000
     16 H           0.2620    6.3809    4.4416 H       1  LIG1        0.0000
     17 H          -0.1506    7.0016    2.9887 H       1  LIG1        0.0000
     18 H          -1.2768    6.2589    3.9088 H       1  LIG1        0.0000
     19 H          -1.3709    5.1371    1.4404 H       1  LIG1        0.0000
     20 H          -0.8517    3.0486    0.3854 H       1  LIG1        0.0000
     21 H           3.2171    1.5903   -0.9830 H       1  LIG1        0.0000
     22 H           5.6863    1.3500   -0.1382 H       1  LIG1        0.0000
     23 H           5.9011    1.1382    3.3921 H       1  LIG1        0.0000
     24 H           5.9030   -0.4260    2.9229 H       1  LIG1        0.0000
     25 H           7.9280    0.5558    2.5003 H       1  LIG1        0.0000
     26 H           2.0161    2.3023    3.2941 H       1  LIG1        0.0000
     27 H           1.4895    4.3929    4.3422 H       1  LIG1        0.0000
@<TRIPOS>BOND
     1     1     2    1
     2     2     3   ar
     3     3     4   ar
     4     4     5   ar
     5     5     6    1
     6     6     7    1
     7     7     8    2
     8     8     9    1
     9     9    10    2
    10    10    11    1
    11    11    12    1
    12    10    13    1
    13    13     7    1
    14     5    14   ar
    15    14    15   ar
    16    15     2   ar
    17     1    16    1
    18     1    17    1
    19     1    18    1
    20     3    19    1
    21     4    20    1
    22     8    21    1
    23     9    22    1
    24    11    23    1
    25    11    24    1
    26    12    25    1
    27    14    26    1
    28    15    27    1
