@<TRIPOS>MOLECULE
*****
 27 28 0 0 0
SMALL
USER_CHARGES

@<TRIPOS>ATOM
      1 C1         -0.3172    6.2540    3.6379 C.3     1  LIG1        0.0000
      2 C2          0.0180    4.9303    2.9704 C.ar    1  LIG1        0.0000
      3 C3         -0.6636    3.7789    3.3485 C.ar    1  LIG1        0.0000
      4 C4         -0.3647    2.5631    2.7429 C.ar    1  LIG1        0.0000
      5 C5          0.6204    2.5177    1.7617 C.ar    1  LIG1        0.0000
      6 S6          1.0000    1.0000    1.0000 S.3     1  LIG1        0.0000
      7 C7          2.7399    1.0000    1.0000 C.2     1  LIG1        0.0000
      8 C8          3.5210    1.9976    1.5007 C.2     1  LIG1        0.0000
      9 C9          4.8504    1.5717    1.2920 C.2     1  LIG1        0.0000
     10 C10         4.7604    0.3580    0.6792 C.2     1  LIG1        0.0000
     11 C11         5.9403   -0.4983    0.2501 C.3     1  LIG1        0.0000
     12 O12         6.3062   -1.3665    1.3125 O.3     1  LIG1        0.0000
     13 O13         3.4988    0.0408    0.5179 O.2     1  LIG1        0.0000
     14 C14         1.3072    3.6645    1.3770 C.ar    1  LIG1        0.0000
     15 C15         1.0014    4.8759    1.9885 C.ar    1  LIG1        0.0000
     16 H           0.2588    6.9759    3.2544 H       1  LIG1        0.0000
     17 H          -1.2792    6.4743    3.4769 H       1  LIG1        0.0000
     18 H          -0.1516    6.1826    4.6215 H       1  LIG1        0.0000
     19 H          -1.3689    3.8250    4.0559 H       1  LIG1        0.0000
     20 H          -0.8521    1.7315    3.0095 H       1  LIG1        0.0000
     21 H           3.2171    2.8503    1.9257 H       1  LIG1        0.0000
     22 H           5.6863    2.0601    1.5424 H       1  LIG1        0.0000
     23 H           5.6851   -1.0404   -0.5505 H       1  LIG1        0.0000
     24 H           6.7143    0.0917    0.0202 H       1  LIG1        0.0000
     25 H           7.0826   -1.9300    1.0302 H       1  LIG1        0.0000
     26 H           2.0123    3.6186    0.6694 H       1  LIG1        0.0000
     27 H           1.4885    5.7076    1.7221 H       1  LIG1        0.0000
@<TRIPOS>BOND
     1     1     2    1
     2     2     3   ar
     3     3     4   ar
     4     4     5   ar
     5     5     6    1
     6     6     7    1
     7     7     8    2
     8     8     9    1
     9     9    10    2
    10    10    11    1
    11    11    12    1
    12    10    13    1
    13    13     7    1
    14     5    14   ar
    15    14    15   ar
    16    15     2   ar
    17     1    16    1
    18     1    17    1
    19     1    18    1
    20     3    19    1
    21     4    20    1
    22     8    21    1
    23     9    22    1
    24    11    23    1
    25    11    24    1
    26    12    25    1
    27    14    26    1
    28    15    27    1
