@<TRIPOS>MOLECULE
*****
 27 28 0 0 0
SMALL
USER_CHARGES

@<TRIPOS>ATOM
      1 C1         -0.3170    6.2551    3.6358 C.3     1  LIG1        0.0000
      2 C2          0.0191    4.9300    2.9714 C.ar    1  LIG1        0.0000
      3 C3         -1.0084    4.0922    2.5523 C.ar    1  LIG1        0.0000
      4 C4         -0.7110    2.8781    1.9426 C.ar    1  LIG1        0.0000
      5 C5          0.6204    2.5177    1.7617 C.ar    1  LIG1        0.0000
      6 S6          1.0000    1.0000    1.0000 S.3     1  LIG1        0.0000
      7 C7          2.7399    1.0000    1.0000 C.2     1  LIG1        0.0000
      8 C8          3.5210    1.9324    0.3864 C.2     1  LIG1        0.0000
      9 C9          4.8504    1.5387    0.6509 C.2     1  LIG1        0.0000
     10 C10         4.7604    0.4012    1.3956 C.2     1  LIG1        0.0000
     11 C11         5.9403   -0.3986    1.9226 C.3     1  LIG1        0.0000
     12 O12         5.4641   -1.5170    2.6566 O.3     1  LIG1        0.0000
     13 O13         3.4988    0.1029    1.5897 O.2     1  LIG1        0.0000
     14 C14         1.6547    3.3496    2.1776 C.ar    1  LIG1        0.0000
     15 C15         1.3474    4.5619    2.7866 C.ar    1  LIG1        0.0000
     16 H           0.5288    6.7323    3.8744 H       1  LIG1        0.0000
     17 H          -0.8509    6.8182    3.0051 H       1  LIG1        0.0000
     18 H          -0.8499    6.0866    4.4650 H       1  LIG1        0.0000
     19 H          -1.9613    4.3627    2.6892 H       1  LIG1        0.0000
     20 H          -1.4453    2.2715    1.6379 H       1  LIG1        0.0000
     21 H           3.2171    2.7268   -0.1396 H       1  LIG1        0.0000
     22 H           5.6863    1.9998    0.3531 H       1  LIG1        0.0000
     23 H           6.4972   -0.7162    1.1552 H       1  LIG1        0.0000
     24 H           6.4953    0.1804    2.5200 H       1  LIG1        0.0000
     25 H           6.2404   -2.0432    3.0034 H       1  LIG1        0.0000
     26 H           2.6077    3.0794    2.0405 H       1  LIG1        0.0000
     27 H           2.0815    5.1687    3.0914 H       1  LIG1        0.0000
@<TRIPOS>BOND
     1     1     2    1
     2     2     3   ar
     3     3     4   ar
     4     4     5   ar
     5     5     6    1
     6     6     7    1
     7     7     8    2
     8     8     9    1
     9     9    10    2
    10    10    11    1
    11    11    12    1
    12    10    13    1
    13    13     7    1
    14     5    14   ar
    15    14    15   ar
    16    15     2   ar
    17     1    16    1
    18     1    17    1
    19     1    18    1
    20     3    19    1
    21     4    20    1
    22     8    21    1
    23     9    22    1
    24    11    23    1
    25    11    24    1
    26    12    25    1
    27    14    26    1
    28    15    27    1
