@<TRIPOS>MOLECULE

  67   72
SMALL
USER_CHARGES
@<TRIPOS>ATOM
   1 C1           4.2834    -1.3410    -5.2224 C.3          1    LIG   0.0000
   2 C2           3.9956    -1.5548    -3.7450 C.ar         1    LIG   0.0000
   3 C3           3.2079    -0.6219    -3.0790 C.ar         1    LIG   0.0000
   4 C4           2.9406    -0.8113    -1.7276 C.ar         1    LIG   0.0000
   5 C5           2.1365     0.1380    -1.0406 C.2          1    LIG   0.0000
   6 C6           1.8627    -0.0321     0.2918 C.2          1    LIG   0.0000
   7 C7           1.0000     1.0000     1.0000 C.3          1    LIG   0.0000
   8 C8           1.8773     1.8773     1.8773 C.2          1    LIG   0.0000
   9 N9           2.0402     1.7589     3.1757 N.2          1    LIG   0.0000
  10 N10          2.8734     2.6996     3.5563 N.2          1    LIG   0.0000
  11 N11          3.2200     3.3793     2.5444 N.2          1    LIG   0.0000
  12 N12          2.6386     2.9215     1.4661 N.pl3        1    LIG   0.0000
  13 C13          2.7832     3.4384     0.0962 C.3          1    LIG   0.0000
  14 C14          3.9349     2.7267    -0.5949 C.3          1    LIG   0.0000
  15 C15          4.0844     3.2608    -2.0104 C.ar         1    LIG   0.0000
  16 C16          3.3883     2.6553    -3.0514 C.ar         1    LIG   0.0000
  17 C17          3.5315     3.1499    -4.3435 C.ar         1    LIG   0.0000
  18 C18          4.3635     4.2391    -4.5839 C.ar         1    LIG   0.0000
  19 C19          5.0557     4.8386    -3.5367 C.ar         1    LIG   0.0000
  20 C20          4.9186     4.3497    -2.2414 C.ar         1    LIG   0.0000
  21 N21          0.3148     1.8345     0.0015 N.3          1    LIG   0.0000
  22 C22         -0.1185     3.1044     0.6033 C.3          1    LIG   0.0000
  23 C23         -0.6638     4.0073    -0.4961 C.3          1    LIG   0.0000
  24 C24         -1.6620     3.3145    -1.4041 C.ar         1    LIG   0.0000
  25 C25         -2.5164     4.0905    -2.1818 C.ar         1    LIG   0.0000
  26 C26         -3.4241     3.4976    -3.0553 C.ar         1    LIG   0.0000
  27 C27         -3.4664     2.1091    -3.1378 C.ar         1    LIG   0.0000
  28 C28         -2.6154     1.3388    -2.3508 C.ar         1    LIG   0.0000
  29 C29         -1.7136     1.9255    -1.4701 C.ar         1    LIG   0.0000
  30 C30         -0.8117     1.0854    -0.5791 C.3          1    LIG   0.0000
  31 C31          2.3859    -1.1599     0.9804 C.2          1    LIG   0.0000
  32 O32          2.1455    -1.3160     2.1666 O.2          1    LIG   0.0000
  33 N33          3.1597    -2.0645     0.2995 N.pl3        1    LIG   0.0000
  34 C34          3.4424    -1.9088    -1.0334 C.ar         1    LIG   0.0000
  35 C35          4.2297    -2.8374    -1.7065 C.ar         1    LIG   0.0000
  36 C36          4.5017    -2.6550    -3.0585 C.ar         1    LIG   0.0000
  37 C37          5.3654    -3.6888    -3.7632 C.3          1    LIG   0.0000
  38 H            0.3211     0.5341     1.5675 H            1    LIG   0.0000
  39 H            3.5267    -2.8570     0.7868 H            1    LIG   0.0000
  40 H            3.8356    -0.5019    -5.5312 H            1    LIG   0.0000
  41 H            5.2706    -1.2627    -5.3617 H            1    LIG   0.0000
  42 H            3.9334    -2.1177    -5.7460 H            1    LIG   0.0000
  43 H            2.8401     0.1717    -3.5637 H            1    LIG   0.0000
  44 H            1.7704     0.9300    -1.5291 H            1    LIG   0.0000
  45 H            2.9694     4.4204     0.1283 H            1    LIG   0.0000
  46 H            1.9377     3.2759    -0.4124 H            1    LIG   0.0000
  47 H            4.7805     2.8892    -0.0863 H            1    LIG   0.0000
  48 H            3.7488     1.7447    -0.6270 H            1    LIG   0.0000
  49 H            2.7915     1.8730    -2.8728 H            1    LIG   0.0000
  50 H            3.0362     2.7227    -5.0999 H            1    LIG   0.0000
  51 H            4.4644     4.5925    -5.5139 H            1    LIG   0.0000
  52 H            5.6519     5.6214    -3.7150 H            1    LIG   0.0000
  53 H            5.4143     4.7763    -1.4849 H            1    LIG   0.0000
  54 H            0.6593     3.5484     1.0481 H            1    LIG   0.0000
  55 H           -0.8338     2.9290     1.2798 H            1    LIG   0.0000
  56 H           -1.1147     4.7907    -0.0684 H            1    LIG   0.0000
  57 H            0.1028     4.3270    -1.0530 H            1    LIG   0.0000
  58 H           -2.4779     5.0873    -2.1122 H            1    LIG   0.0000
  59 H           -4.0347     4.0594    -3.6134 H            1    LIG   0.0000
  60 H           -4.1083     1.6648    -3.7626 H            1    LIG   0.0000
  61 H           -2.6535     0.3419    -2.4202 H            1    LIG   0.0000
  62 H           -1.3633     0.7158     0.1687 H            1    LIG   0.0000
  63 H           -0.4423     0.3330    -1.1243 H            1    LIG   0.0000
  64 H            4.5977    -3.6308    -1.2216 H            1    LIG   0.0000
  65 H            5.6326    -4.3994    -3.1123 H            1    LIG   0.0000
  66 H            4.8472    -4.1010    -4.5126 H            1    LIG   0.0000
  67 H            6.1843    -3.2460    -4.1282 H            1    LIG   0.0000
@<TRIPOS>BOND
   1        1        2 1
   2        2        3 ar
   3        3        4 ar
   4        4        5 1
   5        5        6 2
   6        6        7 1
   7        7        8 1
   8        8        9 2
   9        9       10 1
  10       10       11 2
  11       11       12 1
  12       12        8 1
  13       12       13 1
  14       13       14 1
  15       14       15 1
  16       15       16 ar
  17       16       17 ar
  18       17       18 ar
  19       18       19 ar
  20       19       20 ar
  21       20       15 ar
  22        7       21 1
  23       21       22 1
  24       22       23 1
  25       23       24 1
  26       24       25 ar
  27       25       26 ar
  28       26       27 ar
  29       27       28 ar
  30       28       29 ar
  31       29       24 ar
  32       29       30 1
  33       30       21 1
  34        6       31 1
  35       31       32 2
  36       31       33 1
  37       33       34 1
  38       34        4 ar
  39       34       35 ar
  40       35       36 ar
  41       36        2 ar
  42       36       37 1
  43        7       38 1
  44       33       39 1
  45        1       40 1
  46        1       41 1
  47        1       42 1
  48        3       43 1
  49        5       44 1
  50       13       45 1
  51       13       46 1
  52       14       47 1
  53       14       48 1
  54       16       49 1
  55       17       50 1
  56       18       51 1
  57       19       52 1
  58       20       53 1
  59       22       54 1
  60       22       55 1
  61       23       56 1
  62       23       57 1
  63       25       58 1
  64       26       59 1
  65       27       60 1
  66       28       61 1
  67       30       62 1
  68       30       63 1
  69       35       64 1
  70       37       65 1
  71       37       66 1
  72       37       67 1

@<TRIPOS>MOLECULE

  67   72
SMALL
USER_CHARGES
@<TRIPOS>ATOM
   1 C1           7.5483    -0.8689    -1.9336 C.3          1    LIG   0.0000
   2 C2           6.1116    -1.2490    -1.6133 C.ar         1    LIG   0.0000
   3 C3           5.3059    -0.3184    -0.9658 C.ar         1    LIG   0.0000
   4 C4           3.9907    -0.6595    -0.6699 C.ar         1    LIG   0.0000
   5 C5           3.1617     0.2865    -0.0084 C.2          1    LIG   0.0000
   6 C6           1.8627    -0.0321     0.2918 C.2          1    LIG   0.0000
   7 C7           1.0000     1.0000     1.0000 C.3          1    LIG   0.0000
   8 C8           1.8773     1.8773     1.8773 C.2          1    LIG   0.0000
   9 N9           2.0402     1.7589     3.1757 N.2          1    LIG   0.0000
  10 N10          2.8734     2.6996     3.5563 N.2          1    LIG   0.0000
  11 N11          3.2200     3.3793     2.5444 N.2          1    LIG   0.0000
  12 N12          2.6386     2.9215     1.4661 N.pl3        1    LIG   0.0000
  13 C13          2.7832     3.4384     0.0962 C.3          1    LIG   0.0000
  14 C14          1.7312     4.5060    -0.1563 C.3          1    LIG   0.0000
  15 C15          1.8807     5.0401    -1.5718 C.ar         1    LIG   0.0000
  16 C16          2.7121     6.1291    -1.8122 C.ar         1    LIG   0.0000
  17 C17          2.8424     6.6116    -3.1102 C.ar         1    LIG   0.0000
  18 C18          2.1457     6.0060    -4.1514 C.ar         1    LIG   0.0000
  19 C19          1.3166     4.9173    -3.9019 C.ar         1    LIG   0.0000
  20 C20          1.1801     4.4287    -2.6064 C.ar         1    LIG   0.0000
  21 N21          0.3149     1.8345     0.0016 N.3          1    LIG   0.0000
  22 C22         -0.1813     0.9195    -1.0458 C.3          1    LIG   0.0000
  23 C23         -1.4536     1.3852    -1.7505 C.3          1    LIG   0.0000
  24 C24         -1.8290     2.8439    -1.5004 C.ar         1    LIG   0.0000
  25 C25         -2.4949     3.6254    -2.4421 C.ar         1    LIG   0.0000
  26 C26         -2.8284     4.9484    -2.1703 C.ar         1    LIG   0.0000
  27 C27         -2.5082     5.5200    -0.9435 C.ar         1    LIG   0.0000
  28 C28         -1.8432     4.7502     0.0058 C.ar         1    LIG   0.0000
  29 C29         -1.4976     3.4297    -0.2821 C.ar         1    LIG   0.0000
  30 C30         -0.7363     2.5781     0.7227 C.3          1    LIG   0.0000
  31 C31          1.3509    -1.3102    -0.0612 C.2          1    LIG   0.0000
  32 O32          0.1954    -1.5992     0.2039 O.2          1    LIG   0.0000
  33 N33          2.1670    -2.2090    -0.6991 N.pl3        1    LIG   0.0000
  34 C34          3.4686    -1.9053    -1.0066 C.ar         1    LIG   0.0000
  35 C35          4.2808    -2.8309    -1.6538 C.ar         1    LIG   0.0000
  36 C36          5.5978    -2.4973    -1.9534 C.ar         1    LIG   0.0000
  37 C37          6.4576    -3.5323    -2.6610 C.3          1    LIG   0.0000
  38 H            0.3211     0.5341     1.5675 H            1    LIG   0.0000
  39 H            1.8043    -3.1076    -0.9459 H            1    LIG   0.0000
  40 H            7.7265     0.0612    -1.6125 H            1    LIG   0.0000
  41 H            8.1709    -1.5043    -1.4769 H            1    LIG   0.0000
  42 H            7.6924    -0.9136    -2.9222 H            1    LIG   0.0000
  43 H            5.6663     0.5807    -0.7174 H            1    LIG   0.0000
  44 H            3.5259     1.1846     0.2380 H            1    LIG   0.0000
  45 H            2.6626     2.6906    -0.5567 H            1    LIG   0.0000
  46 H            3.6943     3.8351    -0.0159 H            1    LIG   0.0000
  47 H            0.8201     4.1094    -0.0441 H            1    LIG   0.0000
  48 H            1.8518     5.2538     0.4966 H            1    LIG   0.0000
  49 H            3.2105     6.5602    -1.0601 H            1    LIG   0.0000
  50 H            3.4370     7.3941    -3.2951 H            1    LIG   0.0000
  51 H            2.2414     6.3552    -5.0836 H            1    LIG   0.0000
  52 H            0.8186     4.4855    -4.6539 H            1    LIG   0.0000
  53 H            0.5849     3.6468    -2.4210 H            1    LIG   0.0000
  54 H           -0.3667     0.0328    -0.6223 H            1    LIG   0.0000
  55 H            0.5362     0.8164    -1.7347 H            1    LIG   0.0000
  56 H           -1.3269     1.2613    -2.7346 H            1    LIG   0.0000
  57 H           -2.2102     0.8115    -1.4370 H            1    LIG   0.0000
  58 H           -2.7372     3.2289    -3.3276 H            1    LIG   0.0000
  59 H           -3.3020     5.4928    -2.8626 H            1    LIG   0.0000
  60 H           -2.7522     6.4696    -0.7467 H            1    LIG   0.0000
  61 H           -1.6127     5.1440     0.8956 H            1    LIG   0.0000
  62 H           -0.3191     3.1657     1.4160 H            1    LIG   0.0000
  63 H           -1.3626     1.9352     1.1637 H            1    LIG   0.0000
  64 H            3.9204    -3.7301    -1.9020 H            1    LIG   0.0000
  65 H            5.9193    -4.3597    -2.8210 H            1    LIG   0.0000
  66 H            6.7703    -3.1636    -3.5364 H            1    LIG   0.0000
  67 H            7.2487    -3.7543    -2.0911 H            1    LIG   0.0000
@<TRIPOS>BOND
   1        1        2 1
   2        2        3 ar
   3        3        4 ar
   4        4        5 1
   5        5        6 2
   6        6        7 1
   7        7        8 1
   8        8        9 2
   9        9       10 1
  10       10       11 2
  11       11       12 1
  12       12        8 1
  13       12       13 1
  14       13       14 1
  15       14       15 1
  16       15       16 ar
  17       16       17 ar
  18       17       18 ar
  19       18       19 ar
  20       19       20 ar
  21       20       15 ar
  22        7       21 1
  23       21       22 1
  24       22       23 1
  25       23       24 1
  26       24       25 ar
  27       25       26 ar
  28       26       27 ar
  29       27       28 ar
  30       28       29 ar
  31       29       24 ar
  32       29       30 1
  33       30       21 1
  34        6       31 1
  35       31       32 2
  36       31       33 1
  37       33       34 1
  38       34        4 ar
  39       34       35 ar
  40       35       36 ar
  41       36        2 ar
  42       36       37 1
  43        7       38 1
  44       33       39 1
  45        1       40 1
  46        1       41 1
  47        1       42 1
  48        3       43 1
  49        5       44 1
  50       13       45 1
  51       13       46 1
  52       14       47 1
  53       14       48 1
  54       16       49 1
  55       17       50 1
  56       18       51 1
  57       19       52 1
  58       20       53 1
  59       22       54 1
  60       22       55 1
  61       23       56 1
  62       23       57 1
  63       25       58 1
  64       26       59 1
  65       27       60 1
  66       28       61 1
  67       30       62 1
  68       30       63 1
  69       35       64 1
  70       37       65 1
  71       37       66 1
  72       37       67 1

@<TRIPOS>MOLECULE

  67   72
SMALL
USER_CHARGES
@<TRIPOS>ATOM
   1 C1           4.2834    -1.3410    -5.2224 C.3          1    LIG   0.0000
   2 C2           3.9956    -1.5548    -3.7450 C.ar         1    LIG   0.0000
   3 C3           3.2079    -0.6219    -3.0790 C.ar         1    LIG   0.0000
   4 C4           2.9406    -0.8113    -1.7276 C.ar         1    LIG   0.0000
   5 C5           2.1365     0.1380    -1.0406 C.2          1    LIG   0.0000
   6 C6           1.8627    -0.0321     0.2918 C.2          1    LIG   0.0000
   7 C7           1.0000     1.0000     1.0000 C.3          1    LIG   0.0000
   8 C8           1.8773     1.8773     1.8773 C.2          1    LIG   0.0000
   9 N9           2.7474     2.7685     1.4589 N.2          1    LIG   0.0000
  10 N10          3.2962     3.3129     2.5202 N.2          1    LIG   0.0000
  11 N11          2.7947     2.7892     3.5597 N.2          1    LIG   0.0000
  12 N12          1.9042     1.8890     3.2331 N.pl3        1    LIG   0.0000
  13 C13          1.1039     1.0631     4.1508 C.3          1    LIG   0.0000
  14 C14         -0.1944     1.7826     4.4785 C.3          1    LIG   0.0000
  15 C15         -1.0213     0.9293     5.4268 C.ar         1    LIG   0.0000
  16 C16         -1.9293     0.0103     4.9112 C.ar         1    LIG   0.0000
  17 C17         -2.6823    -0.7658     5.7860 C.ar         1    LIG   0.0000
  18 C18         -2.5230    -0.6189     7.1606 C.ar         1    LIG   0.0000
  19 C19         -1.6123     0.3025     7.6674 C.ar         1    LIG   0.0000
  20 C20         -0.8557     1.0832     6.7993 C.ar         1    LIG   0.0000
  21 N21          0.3148     1.8345     0.0015 N.3          1    LIG   0.0000
  22 C22         -0.1185     3.1044     0.6033 C.3          1    LIG   0.0000
  23 C23         -0.6638     4.0073    -0.4961 C.3          1    LIG   0.0000
  24 C24         -1.6620     3.3145    -1.4041 C.ar         1    LIG   0.0000
  25 C25         -2.5164     4.0905    -2.1818 C.ar         1    LIG   0.0000
  26 C26         -3.4241     3.4976    -3.0553 C.ar         1    LIG   0.0000
  27 C27         -3.4664     2.1091    -3.1378 C.ar         1    LIG   0.0000
  28 C28         -2.6154     1.3388    -2.3508 C.ar         1    LIG   0.0000
  29 C29         -1.7136     1.9255    -1.4701 C.ar         1    LIG   0.0000
  30 C30         -0.8117     1.0854    -0.5791 C.3          1    LIG   0.0000
  31 C31          2.3859    -1.1599     0.9804 C.2          1    LIG   0.0000
  32 O32          2.1455    -1.3160     2.1666 O.2          1    LIG   0.0000
  33 N33          3.1597    -2.0645     0.2995 N.pl3        1    LIG   0.0000
  34 C34          3.4424    -1.9088    -1.0334 C.ar         1    LIG   0.0000
  35 C35          4.2297    -2.8374    -1.7065 C.ar         1    LIG   0.0000
  36 C36          4.5017    -2.6550    -3.0585 C.ar         1    LIG   0.0000
  37 C37          5.3654    -3.6888    -3.7632 C.3          1    LIG   0.0000
  38 H            0.3211     0.5341     1.5675 H            1    LIG   0.0000
  39 H            3.5267    -2.8570     0.7868 H            1    LIG   0.0000
  40 H            3.8356    -0.5019    -5.5312 H            1    LIG   0.0000
  41 H            5.2706    -1.2627    -5.3617 H            1    LIG   0.0000
  42 H            3.9334    -2.1177    -5.7460 H            1    LIG   0.0000
  43 H            2.8401     0.1717    -3.5637 H            1    LIG   0.0000
  44 H            1.7704     0.9300    -1.5291 H            1    LIG   0.0000
  45 H            1.6194     0.9056     4.9931 H            1    LIG   0.0000
  46 H            0.8984     0.1860     3.7168 H            1    LIG   0.0000
  47 H            0.0111     2.6598     4.9126 H            1    LIG   0.0000
  48 H           -0.7099     1.9401     3.6363 H            1    LIG   0.0000
  49 H           -2.0395    -0.0912     3.9225 H            1    LIG   0.0000
  50 H           -3.3384    -1.4296     5.4270 H            1    LIG   0.0000
  51 H           -3.0657    -1.1783     7.7870 H            1    LIG   0.0000
  52 H           -1.5015     0.4037     8.6561 H            1    LIG   0.0000
  53 H           -0.2001     1.7477     7.1581 H            1    LIG   0.0000
  54 H            0.6593     3.5484     1.0481 H            1    LIG   0.0000
  55 H           -0.8338     2.9290     1.2798 H            1    LIG   0.0000
  56 H           -1.1147     4.7907    -0.0684 H            1    LIG   0.0000
  57 H            0.1028     4.3270    -1.0530 H            1    LIG   0.0000
  58 H           -2.4779     5.0873    -2.1122 H            1    LIG   0.0000
  59 H           -4.0347     4.0594    -3.6134 H            1    LIG   0.0000
  60 H           -4.1083     1.6648    -3.7626 H            1    LIG   0.0000
  61 H           -2.6535     0.3419    -2.4202 H            1    LIG   0.0000
  62 H           -1.3633     0.7158     0.1687 H            1    LIG   0.0000
  63 H           -0.4423     0.3330    -1.1243 H            1    LIG   0.0000
  64 H            4.5977    -3.6308    -1.2216 H            1    LIG   0.0000
  65 H            5.6326    -4.3994    -3.1123 H            1    LIG   0.0000
  66 H            4.8472    -4.1010    -4.5126 H            1    LIG   0.0000
  67 H            6.1843    -3.2460    -4.1282 H            1    LIG   0.0000
@<TRIPOS>BOND
   1        1        2 1
   2        2        3 ar
   3        3        4 ar
   4        4        5 1
   5        5        6 2
   6        6        7 1
   7        7        8 1
   8        8        9 2
   9        9       10 1
  10       10       11 2
  11       11       12 1
  12       12        8 1
  13       12       13 1
  14       13       14 1
  15       14       15 1
  16       15       16 ar
  17       16       17 ar
  18       17       18 ar
  19       18       19 ar
  20       19       20 ar
  21       20       15 ar
  22        7       21 1
  23       21       22 1
  24       22       23 1
  25       23       24 1
  26       24       25 ar
  27       25       26 ar
  28       26       27 ar
  29       27       28 ar
  30       28       29 ar
  31       29       24 ar
  32       29       30 1
  33       30       21 1
  34        6       31 1
  35       31       32 2
  36       31       33 1
  37       33       34 1
  38       34        4 ar
  39       34       35 ar
  40       35       36 ar
  41       36        2 ar
  42       36       37 1
  43        7       38 1
  44       33       39 1
  45        1       40 1
  46        1       41 1
  47        1       42 1
  48        3       43 1
  49        5       44 1
  50       13       45 1
  51       13       46 1
  52       14       47 1
  53       14       48 1
  54       16       49 1
  55       17       50 1
  56       18       51 1
  57       19       52 1
  58       20       53 1
  59       22       54 1
  60       22       55 1
  61       23       56 1
  62       23       57 1
  63       25       58 1
  64       26       59 1
  65       27       60 1
  66       28       61 1
  67       30       62 1
  68       30       63 1
  69       35       64 1
  70       37       65 1
  71       37       66 1
  72       37       67 1

@<TRIPOS>MOLECULE

  67   72
SMALL
USER_CHARGES
@<TRIPOS>ATOM
   1 C1           3.3152    -6.0199     0.4166 C.3          1    LIG   0.0000
   2 C2           3.3677    -4.5876    -0.0903 C.ar         1    LIG   0.0000
   3 C3           2.5860    -3.6283     0.5446 C.ar         1    LIG   0.0000
   4 C4           2.6293    -2.3162     0.0861 C.ar         1    LIG   0.0000
   5 C5           1.8332    -1.3306     0.7301 C.2          1    LIG   0.0000
   6 C6           1.8627    -0.0321     0.2918 C.2          1    LIG   0.0000
   7 C7           1.0000     1.0000     1.0000 C.3          1    LIG   0.0000
   8 C8           1.8773     1.8773     1.8773 C.2          1    LIG   0.0000
   9 N9           2.7474     2.7685     1.4589 N.2          1    LIG   0.0000
  10 N10          3.2962     3.3129     2.5202 N.2          1    LIG   0.0000
  11 N11          2.7947     2.7892     3.5597 N.2          1    LIG   0.0000
  12 N12          1.9042     1.8890     3.2331 N.pl3        1    LIG   0.0000
  13 C13          1.1039     1.0631     4.1508 C.3          1    LIG   0.0000
  14 C14         -0.1944     1.7826     4.4785 C.3          1    LIG   0.0000
  15 C15         -1.0213     0.9293     5.4268 C.ar         1    LIG   0.0000
  16 C16         -1.9293     0.0103     4.9112 C.ar         1    LIG   0.0000
  17 C17         -2.6823    -0.7658     5.7860 C.ar         1    LIG   0.0000
  18 C18         -2.5230    -0.6189     7.1606 C.ar         1    LIG   0.0000
  19 C19         -1.6123     0.3025     7.6674 C.ar         1    LIG   0.0000
  20 C20         -0.8557     1.0832     6.7993 C.ar         1    LIG   0.0000
  21 N21          0.3150     1.8343     0.0018 N.3          1    LIG   0.0000
  22 C22         -0.2270     1.0055    -1.0846 C.3          1    LIG   0.0000
  23 C23         -0.6714     1.9352    -2.2010 C.3          1    LIG   0.0000
  24 C24         -1.5487     3.0763    -1.7106 C.ar         1    LIG   0.0000
  25 C25         -2.3351     3.7778    -2.6180 C.ar         1    LIG   0.0000
  26 C26         -3.1196     4.8355    -2.1679 C.ar         1    LIG   0.0000
  27 C27         -3.1143     5.1812    -0.8199 C.ar         1    LIG   0.0000
  28 C28         -2.3338     4.4761     0.0908 C.ar         1    LIG   0.0000
  29 C29         -1.5624     3.4139    -0.3603 C.ar         1    LIG   0.0000
  30 C30         -0.7520     2.6106     0.6437 C.3          1    LIG   0.0000
  31 C31          2.6914     0.3222    -0.8071 C.2          1    LIG   0.0000
  32 O32          2.7213     1.4765    -1.2016 O.2          1    LIG   0.0000
  33 N33          3.4521    -0.6436    -1.4149 N.pl3        1    LIG   0.0000
  34 C34          3.4340    -1.9468    -0.9881 C.ar         1    LIG   0.0000
  35 C35          4.2128    -2.9122    -1.6182 C.ar         1    LIG   0.0000
  36 C36          4.1750    -4.2271    -1.1655 C.ar         1    LIG   0.0000
  37 C37          5.0385    -5.2565    -1.8767 C.3          1    LIG   0.0000
  38 H            0.3211     0.5341     1.5675 H            1    LIG   0.0000
  39 H            4.0341    -0.3914    -2.1880 H            1    LIG   0.0000
  40 H            2.6827    -6.0771     1.1891 H            1    LIG   0.0000
  41 H            3.0004    -6.6218    -0.3173 H            1    LIG   0.0000
  42 H            4.2279    -6.3028     0.7114 H            1    LIG   0.0000
  43 H            2.0027    -3.8779     1.3176 H            1    LIG   0.0000
  44 H            1.2515    -1.5844     1.5029 H            1    LIG   0.0000
  45 H            1.6194     0.9056     4.9931 H            1    LIG   0.0000
  46 H            0.8984     0.1860     3.7168 H            1    LIG   0.0000
  47 H            0.0111     2.6598     4.9126 H            1    LIG   0.0000
  48 H           -0.7099     1.9401     3.6363 H            1    LIG   0.0000
  49 H           -2.0395    -0.0912     3.9225 H            1    LIG   0.0000
  50 H           -3.3384    -1.4296     5.4270 H            1    LIG   0.0000
  51 H           -3.0657    -1.1783     7.7870 H            1    LIG   0.0000
  52 H           -1.5015     0.4037     8.6561 H            1    LIG   0.0000
  53 H           -0.2001     1.7477     7.1581 H            1    LIG   0.0000
  54 H           -1.0075     0.4763    -0.7517 H            1    LIG   0.0000
  55 H            0.4788     0.3823    -1.4215 H            1    LIG   0.0000
  56 H            0.1417     2.3226    -2.6357 H            1    LIG   0.0000
  57 H           -1.1868     1.4030    -2.8727 H            1    LIG   0.0000
  58 H           -2.3368     3.5244    -3.5853 H            1    LIG   0.0000
  59 H           -3.6871     5.3471    -2.8132 H            1    LIG   0.0000
  60 H           -3.6774     5.9443    -0.5025 H            1    LIG   0.0000
  61 H           -2.3286     4.7312     1.0577 H            1    LIG   0.0000
  62 H           -0.3403     3.2403     1.3025 H            1    LIG   0.0000
  63 H           -1.3647     1.9814     1.1220 H            1    LIG   0.0000
  64 H            4.7958    -2.6626    -2.3913 H            1    LIG   0.0000
  65 H            5.5438    -4.8134    -2.6171 H            1    LIG   0.0000
  66 H            5.6836    -5.6572    -1.2261 H            1    LIG   0.0000
  67 H            4.4561    -5.9762    -2.2547 H            1    LIG   0.0000
@<TRIPOS>BOND
   1        1        2 1
   2        2        3 ar
   3        3        4 ar
   4        4        5 1
   5        5        6 2
   6        6        7 1
   7        7        8 1
   8        8        9 2
   9        9       10 1
  10       10       11 2
  11       11       12 1
  12       12        8 1
  13       12       13 1
  14       13       14 1
  15       14       15 1
  16       15       16 ar
  17       16       17 ar
  18       17       18 ar
  19       18       19 ar
  20       19       20 ar
  21       20       15 ar
  22        7       21 1
  23       21       22 1
  24       22       23 1
  25       23       24 1
  26       24       25 ar
  27       25       26 ar
  28       26       27 ar
  29       27       28 ar
  30       28       29 ar
  31       29       24 ar
  32       29       30 1
  33       30       21 1
  34        6       31 1
  35       31       32 2
  36       31       33 1
  37       33       34 1
  38       34        4 ar
  39       34       35 ar
  40       35       36 ar
  41       36        2 ar
  42       36       37 1
  43        7       38 1
  44       33       39 1
  45        1       40 1
  46        1       41 1
  47        1       42 1
  48        3       43 1
  49        5       44 1
  50       13       45 1
  51       13       46 1
  52       14       47 1
  53       14       48 1
  54       16       49 1
  55       17       50 1
  56       18       51 1
  57       19       52 1
  58       20       53 1
  59       22       54 1
  60       22       55 1
  61       23       56 1
  62       23       57 1
  63       25       58 1
  64       26       59 1
  65       27       60 1
  66       28       61 1
  67       30       62 1
  68       30       63 1
  69       35       64 1
  70       37       65 1
  71       37       66 1
  72       37       67 1

@<TRIPOS>MOLECULE

  67   72
SMALL
USER_CHARGES
@<TRIPOS>ATOM
   1 C1           7.5483    -0.8689    -1.9336 C.3          1    LIG   0.0000
   2 C2           6.1116    -1.2490    -1.6133 C.ar         1    LIG   0.0000
   3 C3           5.3059    -0.3184    -0.9658 C.ar         1    LIG   0.0000
   4 C4           3.9907    -0.6595    -0.6699 C.ar         1    LIG   0.0000
   5 C5           3.1617     0.2865    -0.0084 C.2          1    LIG   0.0000
   6 C6           1.8627    -0.0321     0.2918 C.2          1    LIG   0.0000
   7 C7           1.0000     1.0000     1.0000 C.3          1    LIG   0.0000
   8 C8           1.8773     1.8773     1.8773 C.2          1    LIG   0.0000
   9 N9           2.7474     2.7685     1.4589 N.2          1    LIG   0.0000
  10 N10          3.2962     3.3129     2.5202 N.2          1    LIG   0.0000
  11 N11          2.7947     2.7892     3.5597 N.2          1    LIG   0.0000
  12 N12          1.9042     1.8890     3.2331 N.pl3        1    LIG   0.0000
  13 C13          1.1039     1.0631     4.1508 C.3          1    LIG   0.0000
  14 C14         -0.1944     1.7826     4.4785 C.3          1    LIG   0.0000
  15 C15         -1.0213     0.9293     5.4268 C.ar         1    LIG   0.0000
  16 C16         -1.9293     0.0103     4.9112 C.ar         1    LIG   0.0000
  17 C17         -2.6823    -0.7658     5.7860 C.ar         1    LIG   0.0000
  18 C18         -2.5230    -0.6189     7.1606 C.ar         1    LIG   0.0000
  19 C19         -1.6123     0.3025     7.6674 C.ar         1    LIG   0.0000
  20 C20         -0.8557     1.0832     6.7993 C.ar         1    LIG   0.0000
  21 N21          0.3150     1.8343     0.0018 N.3          1    LIG   0.0000
  22 C22          1.2521     2.2674    -1.0448 C.3          1    LIG   0.0000
  23 C23          0.5590     3.3329    -1.8772 C.3          1    LIG   0.0000
  24 C24         -0.8310     2.9192    -2.3345 C.ar         1    LIG   0.0000
  25 C25         -1.4355     3.5914    -3.3911 C.ar         1    LIG   0.0000
  26 C26         -2.7166     3.2237    -3.7917 C.ar         1    LIG   0.0000
  27 C27         -3.3801     2.1898    -3.1378 C.ar         1    LIG   0.0000
  28 C28         -2.7743     1.5112    -2.0851 C.ar         1    LIG   0.0000
  29 C29         -1.4915     1.8729    -1.6969 C.ar         1    LIG   0.0000
  30 C30         -0.8101     1.0956    -0.5827 C.3          1    LIG   0.0000
  31 C31          1.3509    -1.3102    -0.0612 C.2          1    LIG   0.0000
  32 O32          0.1954    -1.5992     0.2039 O.2          1    LIG   0.0000
  33 N33          2.1670    -2.2090    -0.6991 N.pl3        1    LIG   0.0000
  34 C34          3.4686    -1.9053    -1.0066 C.ar         1    LIG   0.0000
  35 C35          4.2808    -2.8309    -1.6538 C.ar         1    LIG   0.0000
  36 C36          5.5978    -2.4973    -1.9534 C.ar         1    LIG   0.0000
  37 C37          6.4576    -3.5323    -2.6610 C.3          1    LIG   0.0000
  38 H            0.3211     0.5341     1.5675 H            1    LIG   0.0000
  39 H            1.8043    -3.1076    -0.9459 H            1    LIG   0.0000
  40 H            7.7265     0.0612    -1.6125 H            1    LIG   0.0000
  41 H            8.1709    -1.5043    -1.4769 H            1    LIG   0.0000
  42 H            7.6924    -0.9136    -2.9222 H            1    LIG   0.0000
  43 H            5.6663     0.5807    -0.7174 H            1    LIG   0.0000
  44 H            3.5259     1.1846     0.2380 H            1    LIG   0.0000
  45 H            1.6194     0.9056     4.9931 H            1    LIG   0.0000
  46 H            0.8984     0.1860     3.7168 H            1    LIG   0.0000
  47 H            0.0111     2.6598     4.9126 H            1    LIG   0.0000
  48 H           -0.7099     1.9401     3.6363 H            1    LIG   0.0000
  49 H           -2.0395    -0.0912     3.9225 H            1    LIG   0.0000
  50 H           -3.3384    -1.4296     5.4270 H            1    LIG   0.0000
  51 H           -3.0657    -1.1783     7.7870 H            1    LIG   0.0000
  52 H           -1.5015     0.4037     8.6561 H            1    LIG   0.0000
  53 H           -0.2001     1.7477     7.1581 H            1    LIG   0.0000
  54 H            1.4982     1.4901    -1.6238 H            1    LIG   0.0000
  55 H            2.0777     2.6461    -0.6266 H            1    LIG   0.0000
  56 H            0.4792     4.1646    -1.3277 H            1    LIG   0.0000
  57 H            1.1178     3.5195    -2.6852 H            1    LIG   0.0000
  58 H           -0.9539     4.3324    -3.8590 H            1    LIG   0.0000
  59 H           -3.1602     3.7024    -4.5494 H            1    LIG   0.0000
  60 H           -4.3018     1.9320    -3.4276 H            1    LIG   0.0000
  61 H           -3.2567     0.7725    -1.6143 H            1    LIG   0.0000
  62 H           -1.4801     0.9084     0.1355 H            1    LIG   0.0000
  63 H           -0.4697     0.2319    -0.9544 H            1    LIG   0.0000
  64 H            3.9204    -3.7301    -1.9020 H            1    LIG   0.0000
  65 H            5.9193    -4.3597    -2.8210 H            1    LIG   0.0000
  66 H            6.7703    -3.1636    -3.5364 H            1    LIG   0.0000
  67 H            7.2487    -3.7543    -2.0911 H            1    LIG   0.0000
@<TRIPOS>BOND
   1        1        2 1
   2        2        3 ar
   3        3        4 ar
   4        4        5 1
   5        5        6 2
   6        6        7 1
   7        7        8 1
   8        8        9 2
   9        9       10 1
  10       10       11 2
  11       11       12 1
  12       12        8 1
  13       12       13 1
  14       13       14 1
  15       14       15 1
  16       15       16 ar
  17       16       17 ar
  18       17       18 ar
  19       18       19 ar
  20       19       20 ar
  21       20       15 ar
  22        7       21 1
  23       21       22 1
  24       22       23 1
  25       23       24 1
  26       24       25 ar
  27       25       26 ar
  28       26       27 ar
  29       27       28 ar
  30       28       29 ar
  31       29       24 ar
  32       29       30 1
  33       30       21 1
  34        6       31 1
  35       31       32 2
  36       31       33 1
  37       33       34 1
  38       34        4 ar
  39       34       35 ar
  40       35       36 ar
  41       36        2 ar
  42       36       37 1
  43        7       38 1
  44       33       39 1
  45        1       40 1
  46        1       41 1
  47        1       42 1
  48        3       43 1
  49        5       44 1
  50       13       45 1
  51       13       46 1
  52       14       47 1
  53       14       48 1
  54       16       49 1
  55       17       50 1
  56       18       51 1
  57       19       52 1
  58       20       53 1
  59       22       54 1
  60       22       55 1
  61       23       56 1
  62       23       57 1
  63       25       58 1
  64       26       59 1
  65       27       60 1
  66       28       61 1
  67       30       62 1
  68       30       63 1
  69       35       64 1
  70       37       65 1
  71       37       66 1
  72       37       67 1

@<TRIPOS>MOLECULE

  67   72
SMALL
USER_CHARGES
@<TRIPOS>ATOM
   1 C1           7.5483    -0.8689    -1.9336 C.3          1    LIG   0.0000
   2 C2           6.1116    -1.2490    -1.6133 C.ar         1    LIG   0.0000
   3 C3           5.3059    -0.3184    -0.9658 C.ar         1    LIG   0.0000
   4 C4           3.9907    -0.6595    -0.6699 C.ar         1    LIG   0.0000
   5 C5           3.1617     0.2865    -0.0084 C.2          1    LIG   0.0000
   6 C6           1.8627    -0.0321     0.2918 C.2          1    LIG   0.0000
   7 C7           1.0000     1.0000     1.0000 C.3          1    LIG   0.0000
   8 C8           1.8773     1.8773     1.8773 C.2          1    LIG   0.0000
   9 N9           2.7474     2.7685     1.4589 N.2          1    LIG   0.0000
  10 N10          3.2962     3.3129     2.5202 N.2          1    LIG   0.0000
  11 N11          2.7947     2.7892     3.5597 N.2          1    LIG   0.0000
  12 N12          1.9042     1.8890     3.2331 N.pl3        1    LIG   0.0000
  13 C13          1.1039     1.0631     4.1508 C.3          1    LIG   0.0000
  14 C14         -0.1944     1.7826     4.4785 C.3          1    LIG   0.0000
  15 C15         -1.0213     0.9293     5.4268 C.ar         1    LIG   0.0000
  16 C16         -1.9293     0.0103     4.9112 C.ar         1    LIG   0.0000
  17 C17         -2.6823    -0.7658     5.7860 C.ar         1    LIG   0.0000
  18 C18         -2.5230    -0.6189     7.1606 C.ar         1    LIG   0.0000
  19 C19         -1.6123     0.3025     7.6674 C.ar         1    LIG   0.0000
  20 C20         -0.8557     1.0832     6.7993 C.ar         1    LIG   0.0000
  21 N21          0.3150     1.8343     0.0018 N.3          1    LIG   0.0000
  22 C22         -0.5489     2.8262     0.6582 C.3          1    LIG   0.0000
  23 C23         -1.4234     3.4602    -0.4103 C.3          1    LIG   0.0000
  24 C24         -0.6337     3.9368    -1.6193 C.ar         1    LIG   0.0000
  25 C25         -1.2029     4.8566    -2.4931 C.ar         1    LIG   0.0000
  26 C26         -0.4849     5.2731    -3.6102 C.ar         1    LIG   0.0000
  27 C27          0.7921     4.7713    -3.8432 C.ar         1    LIG   0.0000
  28 C28          1.3663     3.8564    -2.9663 C.ar         1    LIG   0.0000
  29 C29          0.6515     3.4531    -1.8467 C.ar         1    LIG   0.0000
  30 C30          1.3007     2.4953    -0.8613 C.3          1    LIG   0.0000
  31 C31          1.3509    -1.3102    -0.0612 C.2          1    LIG   0.0000
  32 O32          0.1954    -1.5992     0.2039 O.2          1    LIG   0.0000
  33 N33          2.1670    -2.2090    -0.6991 N.pl3        1    LIG   0.0000
  34 C34          3.4686    -1.9053    -1.0066 C.ar         1    LIG   0.0000
  35 C35          4.2808    -2.8309    -1.6538 C.ar         1    LIG   0.0000
  36 C36          5.5978    -2.4973    -1.9534 C.ar         1    LIG   0.0000
  37 C37          6.4576    -3.5323    -2.6610 C.3          1    LIG   0.0000
  38 H            0.3211     0.5341     1.5675 H            1    LIG   0.0000
  39 H            1.8043    -3.1076    -0.9459 H            1    LIG   0.0000
  40 H            7.7265     0.0612    -1.6125 H            1    LIG   0.0000
  41 H            8.1709    -1.5043    -1.4769 H            1    LIG   0.0000
  42 H            7.6924    -0.9136    -2.9222 H            1    LIG   0.0000
  43 H            5.6663     0.5807    -0.7174 H            1    LIG   0.0000
  44 H            3.5259     1.1846     0.2380 H            1    LIG   0.0000
  45 H            1.6194     0.9056     4.9931 H            1    LIG   0.0000
  46 H            0.8984     0.1860     3.7168 H            1    LIG   0.0000
  47 H            0.0111     2.6598     4.9126 H            1    LIG   0.0000
  48 H           -0.7099     1.9401     3.6363 H            1    LIG   0.0000
  49 H           -2.0395    -0.0912     3.9225 H            1    LIG   0.0000
  50 H           -3.3384    -1.4296     5.4270 H            1    LIG   0.0000
  51 H           -3.0657    -1.1783     7.7870 H            1    LIG   0.0000
  52 H           -1.5015     0.4037     8.6561 H            1    LIG   0.0000
  53 H           -0.2001     1.7477     7.1581 H            1    LIG   0.0000
  54 H            0.0119     3.5272     1.0988 H            1    LIG   0.0000
  55 H           -1.1215     2.3775     1.3443 H            1    LIG   0.0000
  56 H           -2.0950     2.7847    -0.7146 H            1    LIG   0.0000
  57 H           -1.8974     4.2445    -0.0100 H            1    LIG   0.0000
  58 H           -2.1201     5.2156    -2.3204 H            1    LIG   0.0000
  59 H           -0.8865     5.9329    -4.2454 H            1    LIG   0.0000
  60 H            1.3023     5.0714    -4.6492 H            1    LIG   0.0000
  61 H            2.2820     3.4940    -3.1403 H            1    LIG   0.0000
  62 H            1.8002     1.7964    -1.3732 H            1    LIG   0.0000
  63 H            1.9390     3.0079    -0.2870 H            1    LIG   0.0000
  64 H            3.9204    -3.7301    -1.9020 H            1    LIG   0.0000
  65 H            5.9193    -4.3597    -2.8210 H            1    LIG   0.0000
  66 H            6.7703    -3.1636    -3.5364 H            1    LIG   0.0000
  67 H            7.2487    -3.7543    -2.0911 H            1    LIG   0.0000
@<TRIPOS>BOND
   1        1        2 1
   2        2        3 ar
   3        3        4 ar
   4        4        5 1
   5        5        6 2
   6        6        7 1
   7        7        8 1
   8        8        9 2
   9        9       10 1
  10       10       11 2
  11       11       12 1
  12       12        8 1
  13       12       13 1
  14       13       14 1
  15       14       15 1
  16       15       16 ar
  17       16       17 ar
  18       17       18 ar
  19       18       19 ar
  20       19       20 ar
  21       20       15 ar
  22        7       21 1
  23       21       22 1
  24       22       23 1
  25       23       24 1
  26       24       25 ar
  27       25       26 ar
  28       26       27 ar
  29       27       28 ar
  30       28       29 ar
  31       29       24 ar
  32       29       30 1
  33       30       21 1
  34        6       31 1
  35       31       32 2
  36       31       33 1
  37       33       34 1
  38       34        4 ar
  39       34       35 ar
  40       35       36 ar
  41       36        2 ar
  42       36       37 1
  43        7       38 1
  44       33       39 1
  45        1       40 1
  46        1       41 1
  47        1       42 1
  48        3       43 1
  49        5       44 1
  50       13       45 1
  51       13       46 1
  52       14       47 1
  53       14       48 1
  54       16       49 1
  55       17       50 1
  56       18       51 1
  57       19       52 1
  58       20       53 1
  59       22       54 1
  60       22       55 1
  61       23       56 1
  62       23       57 1
  63       25       58 1
  64       26       59 1
  65       27       60 1
  66       28       61 1
  67       30       62 1
  68       30       63 1
  69       35       64 1
  70       37       65 1
  71       37       66 1
  72       37       67 1

@<TRIPOS>MOLECULE

  67   72
SMALL
USER_CHARGES
@<TRIPOS>ATOM
   1 C1           7.0471    -3.2909     0.9853 C.3          1    LIG   0.0000
   2 C2           5.7866    -2.8189     0.2785 C.ar         1    LIG   0.0000
   3 C3           4.9840    -1.8746     0.9099 C.ar         1    LIG   0.0000
   4 C4           3.8296    -1.4384     0.2690 C.ar         1    LIG   0.0000
   5 C5           3.0047    -0.4736     0.9081 C.2          1    LIG   0.0000
   6 C6           1.8627    -0.0321     0.2918 C.2          1    LIG   0.0000
   7 C7           1.0000     1.0000     1.0000 C.3          1    LIG   0.0000
   8 C8           1.8773     1.8773     1.8773 C.2          1    LIG   0.0000
   9 N9           2.7474     2.7685     1.4589 N.2          1    LIG   0.0000
  10 N10          3.2962     3.3129     2.5202 N.2          1    LIG   0.0000
  11 N11          2.7947     2.7892     3.5597 N.2          1    LIG   0.0000
  12 N12          1.9042     1.8890     3.2331 N.pl3        1    LIG   0.0000
  13 C13          1.1039     1.0631     4.1508 C.3          1    LIG   0.0000
  14 C14         -0.1944     1.7826     4.4785 C.3          1    LIG   0.0000
  15 C15         -1.0213     0.9293     5.4268 C.ar         1    LIG   0.0000
  16 C16         -1.9293     0.0103     4.9112 C.ar         1    LIG   0.0000
  17 C17         -2.6823    -0.7658     5.7860 C.ar         1    LIG   0.0000
  18 C18         -2.5230    -0.6189     7.1606 C.ar         1    LIG   0.0000
  19 C19         -1.6123     0.3025     7.6674 C.ar         1    LIG   0.0000
  20 C20         -0.8557     1.0832     6.7993 C.ar         1    LIG   0.0000
  21 N21          0.3148     1.8345     0.0015 N.3          1    LIG   0.0000
  22 C22          1.2790     2.7008    -0.6931 C.3          1    LIG   0.0000
  23 C23          0.5634     3.4172    -1.8314 C.3          1    LIG   0.0000
  24 C24         -0.7429     4.0625    -1.4096 C.ar         1    LIG   0.0000
  25 C25         -1.2940     5.0556    -2.2139 C.ar         1    LIG   0.0000
  26 C26         -2.5089     5.6505    -1.8839 C.ar         1    LIG   0.0000
  27 C27         -3.1664     5.2366    -0.7295 C.ar         1    LIG   0.0000
  28 C28         -2.6056     4.2494     0.0752 C.ar         1    LIG   0.0000
  29 C29         -1.3883     3.6586    -0.2448 C.ar         1    LIG   0.0000
  30 C30         -0.7533     2.6092     0.6545 C.3          1    LIG   0.0000
  31 C31          1.5091    -0.5430    -0.9865 C.2          1    LIG   0.0000
  32 O32          0.4934    -0.1537    -1.5396 O.2          1    LIG   0.0000
  33 N33          2.3184    -1.4734    -1.5865 N.pl3        1    LIG   0.0000
  34 C34          3.4642    -1.9250    -0.9832 C.ar         1    LIG   0.0000
  35 C35          4.2720    -2.8696    -1.6081 C.ar         1    LIG   0.0000
  36 C36          5.4287    -3.3111    -0.9735 C.ar         1    LIG   0.0000
  37 C37          6.2884    -4.3438    -1.6845 C.3          1    LIG   0.0000
  38 H            0.3211     0.5341     1.5675 H            1    LIG   0.0000
  39 H            2.0670    -1.8313    -2.4858 H            1    LIG   0.0000
  40 H            7.1297    -2.8248     1.8661 H            1    LIG   0.0000
  41 H            6.9958    -4.2784     1.1343 H            1    LIG   0.0000
  42 H            7.8448    -3.0800     0.4204 H            1    LIG   0.0000
  43 H            5.2328    -1.5155     1.8094 H            1    LIG   0.0000
  44 H            3.2573    -0.1169     1.8075 H            1    LIG   0.0000
  45 H            1.6194     0.9056     4.9931 H            1    LIG   0.0000
  46 H            0.8984     0.1860     3.7168 H            1    LIG   0.0000
  47 H            0.0111     2.6598     4.9126 H            1    LIG   0.0000
  48 H           -0.7099     1.9401     3.6363 H            1    LIG   0.0000
  49 H           -2.0395    -0.0912     3.9225 H            1    LIG   0.0000
  50 H           -3.3384    -1.4296     5.4270 H            1    LIG   0.0000
  51 H           -3.0657    -1.1783     7.7870 H            1    LIG   0.0000
  52 H           -1.5015     0.4037     8.6561 H            1    LIG   0.0000
  53 H           -0.2001     1.7477     7.1581 H            1    LIG   0.0000
  54 H            2.0249     2.1459    -1.0613 H            1    LIG   0.0000
  55 H            1.6489     3.3735    -0.0523 H            1    LIG   0.0000
  56 H            1.1682     4.1293    -2.1878 H            1    LIG   0.0000
  57 H            0.3701     2.7522    -2.5527 H            1    LIG   0.0000
  58 H           -0.8109     5.3459    -3.0400 H            1    LIG   0.0000
  59 H           -2.9017     6.3625    -2.4660 H            1    LIG   0.0000
  60 H           -4.0422     5.6487    -0.4781 H            1    LIG   0.0000
  61 H           -3.0884     3.9586     0.9012 H            1    LIG   0.0000
  62 H           -0.3654     3.0707     1.4523 H            1    LIG   0.0000
  63 H           -1.4670     1.9745     0.9508 H            1    LIG   0.0000
  64 H            4.0230    -3.2288    -2.5074 H            1    LIG   0.0000
  65 H            5.8733    -4.5740    -2.5647 H            1    LIG   0.0000
  66 H            7.2032    -3.9691    -1.8352 H            1    LIG   0.0000
  67 H            6.3541    -5.1675    -1.1213 H            1    LIG   0.0000
@<TRIPOS>BOND
   1        1        2 1
   2        2        3 ar
   3        3        4 ar
   4        4        5 1
   5        5        6 2
   6        6        7 1
   7        7        8 1
   8        8        9 2
   9        9       10 1
  10       10       11 2
  11       11       12 1
  12       12        8 1
  13       12       13 1
  14       13       14 1
  15       14       15 1
  16       15       16 ar
  17       16       17 ar
  18       17       18 ar
  19       18       19 ar
  20       19       20 ar
  21       20       15 ar
  22        7       21 1
  23       21       22 1
  24       22       23 1
  25       23       24 1
  26       24       25 ar
  27       25       26 ar
  28       26       27 ar
  29       27       28 ar
  30       28       29 ar
  31       29       24 ar
  32       29       30 1
  33       30       21 1
  34        6       31 1
  35       31       32 2
  36       31       33 1
  37       33       34 1
  38       34        4 ar
  39       34       35 ar
  40       35       36 ar
  41       36        2 ar
  42       36       37 1
  43        7       38 1
  44       33       39 1
  45        1       40 1
  46        1       41 1
  47        1       42 1
  48        3       43 1
  49        5       44 1
  50       13       45 1
  51       13       46 1
  52       14       47 1
  53       14       48 1
  54       16       49 1
  55       17       50 1
  56       18       51 1
  57       19       52 1
  58       20       53 1
  59       22       54 1
  60       22       55 1
  61       23       56 1
  62       23       57 1
  63       25       58 1
  64       26       59 1
  65       27       60 1
  66       28       61 1
  67       30       62 1
  68       30       63 1
  69       35       64 1
  70       37       65 1
  71       37       66 1
  72       37       67 1

@<TRIPOS>MOLECULE

  67   72
SMALL
USER_CHARGES
@<TRIPOS>ATOM
   1 C1           3.3152    -6.0199     0.4166 C.3          1    LIG   0.0000
   2 C2           3.3677    -4.5876    -0.0903 C.ar         1    LIG   0.0000
   3 C3           2.5860    -3.6283     0.5446 C.ar         1    LIG   0.0000
   4 C4           2.6293    -2.3162     0.0861 C.ar         1    LIG   0.0000
   5 C5           1.8332    -1.3306     0.7301 C.2          1    LIG   0.0000
   6 C6           1.8627    -0.0321     0.2918 C.2          1    LIG   0.0000
   7 C7           1.0000     1.0000     1.0000 C.3          1    LIG   0.0000
   8 C8           1.8773     1.8773     1.8773 C.2          1    LIG   0.0000
   9 N9           2.7474     2.7685     1.4589 N.2          1    LIG   0.0000
  10 N10          3.2962     3.3129     2.5202 N.2          1    LIG   0.0000
  11 N11          2.7947     2.7892     3.5597 N.2          1    LIG   0.0000
  12 N12          1.9042     1.8890     3.2331 N.pl3        1    LIG   0.0000
  13 C13          1.1039     1.0631     4.1508 C.3          1    LIG   0.0000
  14 C14          1.8509    -0.2252     4.4553 C.3          1    LIG   0.0000
  15 C15          1.0239    -1.0785     5.4036 C.ar         1    LIG   0.0000
  16 C16          1.1834    -0.9320     6.7776 C.ar         1    LIG   0.0000
  17 C17          0.4232    -1.7173     7.6379 C.ar         1    LIG   0.0000
  18 C18         -0.4848    -2.6369     7.1220 C.ar         1    LIG   0.0000
  19 C19         -0.6379    -2.7765     5.7464 C.ar         1    LIG   0.0000
  20 C20          0.1190    -1.9954     4.8789 C.ar         1    LIG   0.0000
  21 N21          0.3150     1.8343     0.0018 N.3          1    LIG   0.0000
  22 C22         -0.2270     1.0055    -1.0846 C.3          1    LIG   0.0000
  23 C23         -0.6714     1.9352    -2.2010 C.3          1    LIG   0.0000
  24 C24         -1.5487     3.0763    -1.7106 C.ar         1    LIG   0.0000
  25 C25         -2.3351     3.7778    -2.6180 C.ar         1    LIG   0.0000
  26 C26         -3.1196     4.8355    -2.1679 C.ar         1    LIG   0.0000
  27 C27         -3.1143     5.1812    -0.8199 C.ar         1    LIG   0.0000
  28 C28         -2.3338     4.4761     0.0908 C.ar         1    LIG   0.0000
  29 C29         -1.5624     3.4139    -0.3603 C.ar         1    LIG   0.0000
  30 C30         -0.7520     2.6106     0.6437 C.3          1    LIG   0.0000
  31 C31          2.6914     0.3222    -0.8071 C.2          1    LIG   0.0000
  32 O32          2.7213     1.4765    -1.2016 O.2          1    LIG   0.0000
  33 N33          3.4521    -0.6436    -1.4149 N.pl3        1    LIG   0.0000
  34 C34          3.4340    -1.9468    -0.9881 C.ar         1    LIG   0.0000
  35 C35          4.2128    -2.9122    -1.6182 C.ar         1    LIG   0.0000
  36 C36          4.1750    -4.2271    -1.1655 C.ar         1    LIG   0.0000
  37 C37          5.0385    -5.2565    -1.8767 C.3          1    LIG   0.0000
  38 H            0.3211     0.5341     1.5675 H            1    LIG   0.0000
  39 H            4.0341    -0.3914    -2.1880 H            1    LIG   0.0000
  40 H            2.6827    -6.0771     1.1891 H            1    LIG   0.0000
  41 H            3.0004    -6.6218    -0.3173 H            1    LIG   0.0000
  42 H            4.2279    -6.3028     0.7114 H            1    LIG   0.0000
  43 H            2.0027    -3.8779     1.3176 H            1    LIG   0.0000
  44 H            1.2515    -1.5844     1.5029 H            1    LIG   0.0000
  45 H            0.2257     0.8464     3.7244 H            1    LIG   0.0000
  46 H            0.9466     1.5661     5.0007 H            1    LIG   0.0000
  47 H            2.0081    -0.7281     3.6054 H            1    LIG   0.0000
  48 H            2.7291    -0.0085     4.8817 H            1    LIG   0.0000
  49 H            1.8372    -0.2694     7.1428 H            1    LIG   0.0000
  50 H            0.5293    -1.6210     8.6276 H            1    LIG   0.0000
  51 H           -1.0299    -3.2000     7.7430 H            1    LIG   0.0000
  52 H           -1.2922    -3.4386     5.3810 H            1    LIG   0.0000
  53 H            0.0136    -2.0921     3.8892 H            1    LIG   0.0000
  54 H           -1.0075     0.4763    -0.7517 H            1    LIG   0.0000
  55 H            0.4788     0.3823    -1.4215 H            1    LIG   0.0000
  56 H            0.1417     2.3226    -2.6357 H            1    LIG   0.0000
  57 H           -1.1868     1.4030    -2.8727 H            1    LIG   0.0000
  58 H           -2.3368     3.5244    -3.5853 H            1    LIG   0.0000
  59 H           -3.6871     5.3471    -2.8132 H            1    LIG   0.0000
  60 H           -3.6774     5.9443    -0.5025 H            1    LIG   0.0000
  61 H           -2.3286     4.7312     1.0577 H            1    LIG   0.0000
  62 H           -0.3403     3.2403     1.3025 H            1    LIG   0.0000
  63 H           -1.3647     1.9814     1.1220 H            1    LIG   0.0000
  64 H            4.7958    -2.6626    -2.3913 H            1    LIG   0.0000
  65 H            5.5438    -4.8134    -2.6171 H            1    LIG   0.0000
  66 H            5.6836    -5.6572    -1.2261 H            1    LIG   0.0000
  67 H            4.4561    -5.9762    -2.2547 H            1    LIG   0.0000
@<TRIPOS>BOND
   1        1        2 1
   2        2        3 ar
   3        3        4 ar
   4        4        5 1
   5        5        6 2
   6        6        7 1
   7        7        8 1
   8        8        9 2
   9        9       10 1
  10       10       11 2
  11       11       12 1
  12       12        8 1
  13       12       13 1
  14       13       14 1
  15       14       15 1
  16       15       16 ar
  17       16       17 ar
  18       17       18 ar
  19       18       19 ar
  20       19       20 ar
  21       20       15 ar
  22        7       21 1
  23       21       22 1
  24       22       23 1
  25       23       24 1
  26       24       25 ar
  27       25       26 ar
  28       26       27 ar
  29       27       28 ar
  30       28       29 ar
  31       29       24 ar
  32       29       30 1
  33       30       21 1
  34        6       31 1
  35       31       32 2
  36       31       33 1
  37       33       34 1
  38       34        4 ar
  39       34       35 ar
  40       35       36 ar
  41       36        2 ar
  42       36       37 1
  43        7       38 1
  44       33       39 1
  45        1       40 1
  46        1       41 1
  47        1       42 1
  48        3       43 1
  49        5       44 1
  50       13       45 1
  51       13       46 1
  52       14       47 1
  53       14       48 1
  54       16       49 1
  55       17       50 1
  56       18       51 1
  57       19       52 1
  58       20       53 1
  59       22       54 1
  60       22       55 1
  61       23       56 1
  62       23       57 1
  63       25       58 1
  64       26       59 1
  65       27       60 1
  66       28       61 1
  67       30       62 1
  68       30       63 1
  69       35       64 1
  70       37       65 1
  71       37       66 1
  72       37       67 1

@<TRIPOS>MOLECULE

  67   72
SMALL
USER_CHARGES
@<TRIPOS>ATOM
   1 C1           7.0471    -3.2909     0.9853 C.3          1    LIG   0.0000
   2 C2           5.7866    -2.8189     0.2785 C.ar         1    LIG   0.0000
   3 C3           4.9840    -1.8746     0.9099 C.ar         1    LIG   0.0000
   4 C4           3.8296    -1.4384     0.2690 C.ar         1    LIG   0.0000
   5 C5           3.0047    -0.4736     0.9081 C.2          1    LIG   0.0000
   6 C6           1.8627    -0.0321     0.2918 C.2          1    LIG   0.0000
   7 C7           1.0000     1.0000     1.0000 C.3          1    LIG   0.0000
   8 C8           1.8773     1.8773     1.8773 C.2          1    LIG   0.0000
   9 N9           2.7474     2.7685     1.4589 N.2          1    LIG   0.0000
  10 N10          3.2962     3.3129     2.5202 N.2          1    LIG   0.0000
  11 N11          2.7947     2.7892     3.5597 N.2          1    LIG   0.0000
  12 N12          1.9042     1.8890     3.2331 N.pl3        1    LIG   0.0000
  13 C13          1.1039     1.0631     4.1508 C.3          1    LIG   0.0000
  14 C14          1.8509    -0.2252     4.4553 C.3          1    LIG   0.0000
  15 C15          1.0239    -1.0785     5.4036 C.ar         1    LIG   0.0000
  16 C16          1.1834    -0.9320     6.7776 C.ar         1    LIG   0.0000
  17 C17          0.4232    -1.7173     7.6379 C.ar         1    LIG   0.0000
  18 C18         -0.4848    -2.6369     7.1220 C.ar         1    LIG   0.0000
  19 C19         -0.6379    -2.7765     5.7464 C.ar         1    LIG   0.0000
  20 C20          0.1190    -1.9954     4.8789 C.ar         1    LIG   0.0000
  21 N21          0.3148     1.8345     0.0015 N.3          1    LIG   0.0000
  22 C22          1.2790     2.7008    -0.6931 C.3          1    LIG   0.0000
  23 C23          0.5634     3.4172    -1.8314 C.3          1    LIG   0.0000
  24 C24         -0.7429     4.0625    -1.4096 C.ar         1    LIG   0.0000
  25 C25         -1.2940     5.0556    -2.2139 C.ar         1    LIG   0.0000
  26 C26         -2.5089     5.6505    -1.8839 C.ar         1    LIG   0.0000
  27 C27         -3.1664     5.2366    -0.7295 C.ar         1    LIG   0.0000
  28 C28         -2.6056     4.2494     0.0752 C.ar         1    LIG   0.0000
  29 C29         -1.3883     3.6586    -0.2448 C.ar         1    LIG   0.0000
  30 C30         -0.7533     2.6092     0.6545 C.3          1    LIG   0.0000
  31 C31          1.5091    -0.5430    -0.9865 C.2          1    LIG   0.0000
  32 O32          0.4934    -0.1537    -1.5396 O.2          1    LIG   0.0000
  33 N33          2.3184    -1.4734    -1.5865 N.pl3        1    LIG   0.0000
  34 C34          3.4642    -1.9250    -0.9832 C.ar         1    LIG   0.0000
  35 C35          4.2720    -2.8696    -1.6081 C.ar         1    LIG   0.0000
  36 C36          5.4287    -3.3111    -0.9735 C.ar         1    LIG   0.0000
  37 C37          6.2884    -4.3438    -1.6845 C.3          1    LIG   0.0000
  38 H            0.3211     0.5341     1.5675 H            1    LIG   0.0000
  39 H            2.0670    -1.8313    -2.4858 H            1    LIG   0.0000
  40 H            7.1297    -2.8248     1.8661 H            1    LIG   0.0000
  41 H            6.9958    -4.2784     1.1343 H            1    LIG   0.0000
  42 H            7.8448    -3.0800     0.4204 H            1    LIG   0.0000
  43 H            5.2328    -1.5155     1.8094 H            1    LIG   0.0000
  44 H            3.2573    -0.1169     1.8075 H            1    LIG   0.0000
  45 H            0.2257     0.8464     3.7244 H            1    LIG   0.0000
  46 H            0.9466     1.5661     5.0007 H            1    LIG   0.0000
  47 H            2.0081    -0.7281     3.6054 H            1    LIG   0.0000
  48 H            2.7291    -0.0085     4.8817 H            1    LIG   0.0000
  49 H            1.8372    -0.2694     7.1428 H            1    LIG   0.0000
  50 H            0.5293    -1.6210     8.6276 H            1    LIG   0.0000
  51 H           -1.0299    -3.2000     7.7430 H            1    LIG   0.0000
  52 H           -1.2922    -3.4386     5.3810 H            1    LIG   0.0000
  53 H            0.0136    -2.0921     3.8892 H            1    LIG   0.0000
  54 H            2.0249     2.1459    -1.0613 H            1    LIG   0.0000
  55 H            1.6489     3.3735    -0.0523 H            1    LIG   0.0000
  56 H            1.1682     4.1293    -2.1878 H            1    LIG   0.0000
  57 H            0.3701     2.7522    -2.5527 H            1    LIG   0.0000
  58 H           -0.8109     5.3459    -3.0400 H            1    LIG   0.0000
  59 H           -2.9017     6.3625    -2.4660 H            1    LIG   0.0000
  60 H           -4.0422     5.6487    -0.4781 H            1    LIG   0.0000
  61 H           -3.0884     3.9586     0.9012 H            1    LIG   0.0000
  62 H           -0.3654     3.0707     1.4523 H            1    LIG   0.0000
  63 H           -1.4670     1.9745     0.9508 H            1    LIG   0.0000
  64 H            4.0230    -3.2288    -2.5074 H            1    LIG   0.0000
  65 H            5.8733    -4.5740    -2.5647 H            1    LIG   0.0000
  66 H            7.2032    -3.9691    -1.8352 H            1    LIG   0.0000
  67 H            6.3541    -5.1675    -1.1213 H            1    LIG   0.0000
@<TRIPOS>BOND
   1        1        2 1
   2        2        3 ar
   3        3        4 ar
   4        4        5 1
   5        5        6 2
   6        6        7 1
   7        7        8 1
   8        8        9 2
   9        9       10 1
  10       10       11 2
  11       11       12 1
  12       12        8 1
  13       12       13 1
  14       13       14 1
  15       14       15 1
  16       15       16 ar
  17       16       17 ar
  18       17       18 ar
  19       18       19 ar
  20       19       20 ar
  21       20       15 ar
  22        7       21 1
  23       21       22 1
  24       22       23 1
  25       23       24 1
  26       24       25 ar
  27       25       26 ar
  28       26       27 ar
  29       27       28 ar
  30       28       29 ar
  31       29       24 ar
  32       29       30 1
  33       30       21 1
  34        6       31 1
  35       31       32 2
  36       31       33 1
  37       33       34 1
  38       34        4 ar
  39       34       35 ar
  40       35       36 ar
  41       36        2 ar
  42       36       37 1
  43        7       38 1
  44       33       39 1
  45        1       40 1
  46        1       41 1
  47        1       42 1
  48        3       43 1
  49        5       44 1
  50       13       45 1
  51       13       46 1
  52       14       47 1
  53       14       48 1
  54       16       49 1
  55       17       50 1
  56       18       51 1
  57       19       52 1
  58       20       53 1
  59       22       54 1
  60       22       55 1
  61       23       56 1
  62       23       57 1
  63       25       58 1
  64       26       59 1
  65       27       60 1
  66       28       61 1
  67       30       62 1
  68       30       63 1
  69       35       64 1
  70       37       65 1
  71       37       66 1
  72       37       67 1

@<TRIPOS>MOLECULE

  67   72
SMALL
USER_CHARGES
@<TRIPOS>ATOM
   1 C1           7.5483    -0.8689    -1.9336 C.3          1    LIG   0.0000
   2 C2           6.1116    -1.2490    -1.6133 C.ar         1    LIG   0.0000
   3 C3           5.3059    -0.3184    -0.9658 C.ar         1    LIG   0.0000
   4 C4           3.9907    -0.6595    -0.6699 C.ar         1    LIG   0.0000
   5 C5           3.1617     0.2865    -0.0084 C.2          1    LIG   0.0000
   6 C6           1.8627    -0.0321     0.2918 C.2          1    LIG   0.0000
   7 C7           1.0000     1.0000     1.0000 C.3          1    LIG   0.0000
   8 C8           1.8773     1.8773     1.8773 C.2          1    LIG   0.0000
   9 N9           3.0810     1.5810     2.3127 N.2          1    LIG   0.0000
  10 N10          3.5008     2.5951     3.0334 N.2          1    LIG   0.0000
  11 N11          2.6030     3.4896     3.0511 N.2          1    LIG   0.0000
  12 N12          1.5660     3.1093     2.3509 N.pl3        1    LIG   0.0000
  13 C13          0.3232     3.8651     2.1295 C.3          1    LIG   0.0000
  14 C14          0.4658     4.7201     0.8808 C.3          1    LIG   0.0000
  15 C15         -0.8184     5.5011     0.6521 C.ar         1    LIG   0.0000
  16 C16         -1.8321     4.9468    -0.1224 C.ar         1    LIG   0.0000
  17 C17         -3.0034     5.6685    -0.3272 C.ar         1    LIG   0.0000
  18 C18         -3.1519     6.9304     0.2402 C.ar         1    LIG   0.0000
  19 C19         -2.1329     7.4769     1.0137 C.ar         1    LIG   0.0000
  20 C20         -0.9579     6.7619     1.2229 C.ar         1    LIG   0.0000
  21 N21          0.3156     1.8336     0.0026 N.3          1    LIG   0.0000
  22 C22         -0.6046     0.9507    -0.7413 C.3          1    LIG   0.0000
  23 C23         -0.8781     1.3772    -2.1814 C.3          1    LIG   0.0000
  24 C24         -0.4185     2.7875    -2.5325 C.ar         1    LIG   0.0000
  25 C25         -1.0578     3.5853    -3.4789 C.ar         1    LIG   0.0000
  26 C26         -0.6118     4.8690    -3.7819 C.ar         1    LIG   0.0000
  27 C27          0.5085     5.3844    -3.1375 C.ar         1    LIG   0.0000
  28 C28          1.1534     4.5927    -2.1928 C.ar         1    LIG   0.0000
  29 C29          0.6927     3.3146    -1.8802 C.ar         1    LIG   0.0000
  30 C30          1.3675     2.4572    -0.8174 C.3          1    LIG   0.0000
  31 C31          1.3509    -1.3102    -0.0612 C.2          1    LIG   0.0000
  32 O32          0.1954    -1.5992     0.2039 O.2          1    LIG   0.0000
  33 N33          2.1670    -2.2090    -0.6991 N.pl3        1    LIG   0.0000
  34 C34          3.4686    -1.9053    -1.0066 C.ar         1    LIG   0.0000
  35 C35          4.2808    -2.8309    -1.6538 C.ar         1    LIG   0.0000
  36 C36          5.5978    -2.4973    -1.9534 C.ar         1    LIG   0.0000
  37 C37          6.4576    -3.5323    -2.6610 C.3          1    LIG   0.0000
  38 H            0.3211     0.5341     1.5675 H            1    LIG   0.0000
  39 H            1.8043    -3.1076    -0.9459 H            1    LIG   0.0000
  40 H            7.7265     0.0612    -1.6125 H            1    LIG   0.0000
  41 H            8.1709    -1.5043    -1.4769 H            1    LIG   0.0000
  42 H            7.6924    -0.9136    -2.9222 H            1    LIG   0.0000
  43 H            5.6663     0.5807    -0.7174 H            1    LIG   0.0000
  44 H            3.5259     1.1846     0.2380 H            1    LIG   0.0000
  45 H            0.1461     4.4538     2.9182 H            1    LIG   0.0000
  46 H           -0.4381     3.2276     2.0118 H            1    LIG   0.0000
  47 H            1.2272     5.3577     0.9986 H            1    LIG   0.0000
  48 H            0.6429     4.1314     0.0921 H            1    LIG   0.0000
  49 H           -1.7201     4.0394    -0.5276 H            1    LIG   0.0000
  50 H           -3.7390     5.2804    -0.8824 H            1    LIG   0.0000
  51 H           -3.9951     7.4469     0.0913 H            1    LIG   0.0000
  52 H           -2.2451     8.3839     1.4194 H            1    LIG   0.0000
  53 H           -0.2218     7.1501     1.7774 H            1    LIG   0.0000
  54 H           -1.4768     0.9281    -0.2527 H            1    LIG   0.0000
  55 H           -0.2085     0.0327    -0.7588 H            1    LIG   0.0000
  56 H           -0.4082     0.7371    -2.7892 H            1    LIG   0.0000
  57 H           -1.8642     1.3237    -2.3390 H            1    LIG   0.0000
  58 H           -1.8604     3.2254    -3.9546 H            1    LIG   0.0000
  59 H           -1.0961     5.4198    -4.4617 H            1    LIG   0.0000
  60 H            0.8425     6.3030    -3.3487 H            1    LIG   0.0000
  61 H            1.9645     4.9478    -1.7282 H            1    LIG   0.0000
  62 H            1.9211     1.7485    -1.2549 H            1    LIG   0.0000
  63 H            1.9521     3.0288    -0.2416 H            1    LIG   0.0000
  64 H            3.9204    -3.7301    -1.9020 H            1    LIG   0.0000
  65 H            5.9193    -4.3597    -2.8210 H            1    LIG   0.0000
  66 H            6.7703    -3.1636    -3.5364 H            1    LIG   0.0000
  67 H            7.2487    -3.7543    -2.0911 H            1    LIG   0.0000
@<TRIPOS>BOND
   1        1        2 1
   2        2        3 ar
   3        3        4 ar
   4        4        5 1
   5        5        6 2
   6        6        7 1
   7        7        8 1
   8        8        9 2
   9        9       10 1
  10       10       11 2
  11       11       12 1
  12       12        8 1
  13       12       13 1
  14       13       14 1
  15       14       15 1
  16       15       16 ar
  17       16       17 ar
  18       17       18 ar
  19       18       19 ar
  20       19       20 ar
  21       20       15 ar
  22        7       21 1
  23       21       22 1
  24       22       23 1
  25       23       24 1
  26       24       25 ar
  27       25       26 ar
  28       26       27 ar
  29       27       28 ar
  30       28       29 ar
  31       29       24 ar
  32       29       30 1
  33       30       21 1
  34        6       31 1
  35       31       32 2
  36       31       33 1
  37       33       34 1
  38       34        4 ar
  39       34       35 ar
  40       35       36 ar
  41       36        2 ar
  42       36       37 1
  43        7       38 1
  44       33       39 1
  45        1       40 1
  46        1       41 1
  47        1       42 1
  48        3       43 1
  49        5       44 1
  50       13       45 1
  51       13       46 1
  52       14       47 1
  53       14       48 1
  54       16       49 1
  55       17       50 1
  56       18       51 1
  57       19       52 1
  58       20       53 1
  59       22       54 1
  60       22       55 1
  61       23       56 1
  62       23       57 1
  63       25       58 1
  64       26       59 1
  65       27       60 1
  66       28       61 1
  67       30       62 1
  68       30       63 1
  69       35       64 1
  70       37       65 1
  71       37       66 1
  72       37       67 1

@<TRIPOS>MOLECULE

  67   72
SMALL
USER_CHARGES
@<TRIPOS>ATOM
   1 C1           7.5483    -0.8689    -1.9336 C.3          1    LIG   0.0000
   2 C2           6.1116    -1.2490    -1.6133 C.ar         1    LIG   0.0000
   3 C3           5.3059    -0.3184    -0.9658 C.ar         1    LIG   0.0000
   4 C4           3.9907    -0.6595    -0.6699 C.ar         1    LIG   0.0000
   5 C5           3.1617     0.2865    -0.0084 C.2          1    LIG   0.0000
   6 C6           1.8627    -0.0321     0.2918 C.2          1    LIG   0.0000
   7 C7           1.0000     1.0000     1.0000 C.3          1    LIG   0.0000
   8 C8           1.8773     1.8773     1.8773 C.2          1    LIG   0.0000
   9 N9           3.0810     1.5810     2.3127 N.2          1    LIG   0.0000
  10 N10          3.5008     2.5951     3.0334 N.2          1    LIG   0.0000
  11 N11          2.6030     3.4896     3.0511 N.2          1    LIG   0.0000
  12 N12          1.5660     3.1093     2.3509 N.pl3        1    LIG   0.0000
  13 C13          0.3232     3.8651     2.1295 C.3          1    LIG   0.0000
  14 C14         -0.6753     3.5306     3.2256 C.3          1    LIG   0.0000
  15 C15         -1.9594     4.3116     2.9968 C.ar         1    LIG   0.0000
  16 C16         -2.1082     5.5728     3.5643 C.ar         1    LIG   0.0000
  17 C17         -3.2866     6.2800     3.3505 C.ar         1    LIG   0.0000
  18 C18         -4.3009     5.7252     2.5759 C.ar         1    LIG   0.0000
  19 C19         -4.1434     4.4633     2.0120 C.ar         1    LIG   0.0000
  20 C20         -2.9681     3.7490     2.2215 C.ar         1    LIG   0.0000
  21 N21          0.3150     1.8343     0.0018 N.3          1    LIG   0.0000
  22 C22          1.2521     2.2674    -1.0448 C.3          1    LIG   0.0000
  23 C23          0.5590     3.3329    -1.8772 C.3          1    LIG   0.0000
  24 C24         -0.8310     2.9192    -2.3345 C.ar         1    LIG   0.0000
  25 C25         -1.4355     3.5914    -3.3911 C.ar         1    LIG   0.0000
  26 C26         -2.7166     3.2237    -3.7917 C.ar         1    LIG   0.0000
  27 C27         -3.3801     2.1898    -3.1378 C.ar         1    LIG   0.0000
  28 C28         -2.7743     1.5112    -2.0851 C.ar         1    LIG   0.0000
  29 C29         -1.4915     1.8729    -1.6969 C.ar         1    LIG   0.0000
  30 C30         -0.8101     1.0956    -0.5827 C.3          1    LIG   0.0000
  31 C31          1.3509    -1.3102    -0.0612 C.2          1    LIG   0.0000
  32 O32          0.1954    -1.5992     0.2039 O.2          1    LIG   0.0000
  33 N33          2.1670    -2.2090    -0.6991 N.pl3        1    LIG   0.0000
  34 C34          3.4686    -1.9053    -1.0066 C.ar         1    LIG   0.0000
  35 C35          4.2808    -2.8309    -1.6538 C.ar         1    LIG   0.0000
  36 C36          5.5978    -2.4973    -1.9534 C.ar         1    LIG   0.0000
  37 C37          6.4576    -3.5323    -2.6610 C.3          1    LIG   0.0000
  38 H            0.3211     0.5341     1.5675 H            1    LIG   0.0000
  39 H            1.8043    -3.1076    -0.9459 H            1    LIG   0.0000
  40 H            7.7265     0.0612    -1.6125 H            1    LIG   0.0000
  41 H            8.1709    -1.5043    -1.4769 H            1    LIG   0.0000
  42 H            7.6924    -0.9136    -2.9222 H            1    LIG   0.0000
  43 H            5.6663     0.5807    -0.7174 H            1    LIG   0.0000
  44 H            3.5259     1.1846     0.2380 H            1    LIG   0.0000
  45 H           -0.0628     3.6189     1.2405 H            1    LIG   0.0000
  46 H            0.5215     4.8451     2.1469 H            1    LIG   0.0000
  47 H           -0.8735     2.5506     3.2082 H            1    LIG   0.0000
  48 H           -0.2892     3.7769     4.1146 H            1    LIG   0.0000
  49 H           -1.3759     5.9667     4.1198 H            1    LIG   0.0000
  50 H           -3.4050     7.1875     3.7535 H            1    LIG   0.0000
  51 H           -5.1470     6.2361     2.4239 H            1    LIG   0.0000
  52 H           -4.8753     4.0695     1.4559 H            1    LIG   0.0000
  53 H           -2.8497     2.8411     1.8192 H            1    LIG   0.0000
  54 H            1.4982     1.4901    -1.6238 H            1    LIG   0.0000
  55 H            2.0777     2.6461    -0.6266 H            1    LIG   0.0000
  56 H            0.4792     4.1646    -1.3277 H            1    LIG   0.0000
  57 H            1.1178     3.5195    -2.6852 H            1    LIG   0.0000
  58 H           -0.9539     4.3324    -3.8590 H            1    LIG   0.0000
  59 H           -3.1602     3.7024    -4.5494 H            1    LIG   0.0000
  60 H           -4.3018     1.9320    -3.4276 H            1    LIG   0.0000
  61 H           -3.2567     0.7725    -1.6143 H            1    LIG   0.0000
  62 H           -1.4801     0.9084     0.1355 H            1    LIG   0.0000
  63 H           -0.4697     0.2319    -0.9544 H            1    LIG   0.0000
  64 H            3.9204    -3.7301    -1.9020 H            1    LIG   0.0000
  65 H            5.9193    -4.3597    -2.8210 H            1    LIG   0.0000
  66 H            6.7703    -3.1636    -3.5364 H            1    LIG   0.0000
  67 H            7.2487    -3.7543    -2.0911 H            1    LIG   0.0000
@<TRIPOS>BOND
   1        1        2 1
   2        2        3 ar
   3        3        4 ar
   4        4        5 1
   5        5        6 2
   6        6        7 1
   7        7        8 1
   8        8        9 2
   9        9       10 1
  10       10       11 2
  11       11       12 1
  12       12        8 1
  13       12       13 1
  14       13       14 1
  15       14       15 1
  16       15       16 ar
  17       16       17 ar
  18       17       18 ar
  19       18       19 ar
  20       19       20 ar
  21       20       15 ar
  22        7       21 1
  23       21       22 1
  24       22       23 1
  25       23       24 1
  26       24       25 ar
  27       25       26 ar
  28       26       27 ar
  29       27       28 ar
  30       28       29 ar
  31       29       24 ar
  32       29       30 1
  33       30       21 1
  34        6       31 1
  35       31       32 2
  36       31       33 1
  37       33       34 1
  38       34        4 ar
  39       34       35 ar
  40       35       36 ar
  41       36        2 ar
  42       36       37 1
  43        7       38 1
  44       33       39 1
  45        1       40 1
  46        1       41 1
  47        1       42 1
  48        3       43 1
  49        5       44 1
  50       13       45 1
  51       13       46 1
  52       14       47 1
  53       14       48 1
  54       16       49 1
  55       17       50 1
  56       18       51 1
  57       19       52 1
  58       20       53 1
  59       22       54 1
  60       22       55 1
  61       23       56 1
  62       23       57 1
  63       25       58 1
  64       26       59 1
  65       27       60 1
  66       28       61 1
  67       30       62 1
  68       30       63 1
  69       35       64 1
  70       37       65 1
  71       37       66 1
  72       37       67 1

@<TRIPOS>MOLECULE

  67   72
SMALL
USER_CHARGES
@<TRIPOS>ATOM
   1 C1           7.5483    -0.8689    -1.9336 C.3          1    LIG   0.0000
   2 C2           6.1116    -1.2490    -1.6133 C.ar         1    LIG   0.0000
   3 C3           5.3059    -0.3184    -0.9658 C.ar         1    LIG   0.0000
   4 C4           3.9907    -0.6595    -0.6699 C.ar         1    LIG   0.0000
   5 C5           3.1617     0.2865    -0.0084 C.2          1    LIG   0.0000
   6 C6           1.8627    -0.0321     0.2918 C.2          1    LIG   0.0000
   7 C7           1.0000     1.0000     1.0000 C.3          1    LIG   0.0000
   8 C8           1.8773     1.8773     1.8773 C.2          1    LIG   0.0000
   9 N9           3.0810     1.5810     2.3127 N.2          1    LIG   0.0000
  10 N10          3.5008     2.5951     3.0334 N.2          1    LIG   0.0000
  11 N11          2.6030     3.4896     3.0511 N.2          1    LIG   0.0000
  12 N12          1.5660     3.1093     2.3509 N.pl3        1    LIG   0.0000
  13 C13          0.3232     3.8651     2.1295 C.3          1    LIG   0.0000
  14 C14         -0.6753     3.5306     3.2256 C.3          1    LIG   0.0000
  15 C15         -1.9594     4.3116     2.9968 C.ar         1    LIG   0.0000
  16 C16         -2.1082     5.5728     3.5643 C.ar         1    LIG   0.0000
  17 C17         -3.2866     6.2800     3.3505 C.ar         1    LIG   0.0000
  18 C18         -4.3009     5.7252     2.5759 C.ar         1    LIG   0.0000
  19 C19         -4.1434     4.4633     2.0120 C.ar         1    LIG   0.0000
  20 C20         -2.9681     3.7490     2.2215 C.ar         1    LIG   0.0000
  21 N21          0.3148     1.8345     0.0015 N.3          1    LIG   0.0000
  22 C22         -0.6385     1.0282    -0.7752 C.3          1    LIG   0.0000
  23 C23         -1.4485     1.9556    -1.6724 C.3          1    LIG   0.0000
  24 C24         -0.5932     2.9322    -2.4570 C.ar         1    LIG   0.0000
  25 C25         -1.1362     3.5532    -3.5779 C.ar         1    LIG   0.0000
  26 C26         -0.3997     4.4827    -4.3073 C.ar         1    LIG   0.0000
  27 C27          0.8963     4.7814    -3.8979 C.ar         1    LIG   0.0000
  28 C28          1.4366     4.1503    -2.7814 C.ar         1    LIG   0.0000
  29 C29          0.7087     3.2146    -2.0549 C.ar         1    LIG   0.0000
  30 C30          1.3112     2.4932    -0.8592 C.3          1    LIG   0.0000
  31 C31          1.3509    -1.3102    -0.0612 C.2          1    LIG   0.0000
  32 O32          0.1954    -1.5992     0.2039 O.2          1    LIG   0.0000
  33 N33          2.1670    -2.2090    -0.6991 N.pl3        1    LIG   0.0000
  34 C34          3.4686    -1.9053    -1.0066 C.ar         1    LIG   0.0000
  35 C35          4.2808    -2.8309    -1.6538 C.ar         1    LIG   0.0000
  36 C36          5.5978    -2.4973    -1.9534 C.ar         1    LIG   0.0000
  37 C37          6.4576    -3.5323    -2.6610 C.3          1    LIG   0.0000
  38 H            0.3211     0.5341     1.5675 H            1    LIG   0.0000
  39 H            1.8043    -3.1076    -0.9459 H            1    LIG   0.0000
  40 H            7.7265     0.0612    -1.6125 H            1    LIG   0.0000
  41 H            8.1709    -1.5043    -1.4769 H            1    LIG   0.0000
  42 H            7.6924    -0.9136    -2.9222 H            1    LIG   0.0000
  43 H            5.6663     0.5807    -0.7174 H            1    LIG   0.0000
  44 H            3.5259     1.1846     0.2380 H            1    LIG   0.0000
  45 H           -0.0628     3.6189     1.2405 H            1    LIG   0.0000
  46 H            0.5215     4.8451     2.1469 H            1    LIG   0.0000
  47 H           -0.8735     2.5506     3.2082 H            1    LIG   0.0000
  48 H           -0.2892     3.7769     4.1146 H            1    LIG   0.0000
  49 H           -1.3759     5.9667     4.1198 H            1    LIG   0.0000
  50 H           -3.4050     7.1875     3.7535 H            1    LIG   0.0000
  51 H           -5.1470     6.2361     2.4239 H            1    LIG   0.0000
  52 H           -4.8753     4.0695     1.4559 H            1    LIG   0.0000
  53 H           -2.8497     2.8411     1.8192 H            1    LIG   0.0000
  54 H           -1.2522     0.5417    -0.1533 H            1    LIG   0.0000
  55 H           -0.1406     0.3674    -1.3368 H            1    LIG   0.0000
  56 H           -1.9671     1.3972    -2.3199 H            1    LIG   0.0000
  57 H           -2.0815     2.4771    -1.1003 H            1    LIG   0.0000
  58 H           -2.0680     3.3288    -3.8633 H            1    LIG   0.0000
  59 H           -0.7948     4.9277    -5.1110 H            1    LIG   0.0000
  60 H            1.4396     5.4497    -4.4061 H            1    LIG   0.0000
  61 H            2.3682     4.3747    -2.4955 H            1    LIG   0.0000
  62 H            1.9448     1.7974    -1.1974 H            1    LIG   0.0000
  63 H            1.8120     3.1605    -0.3080 H            1    LIG   0.0000
  64 H            3.9204    -3.7301    -1.9020 H            1    LIG   0.0000
  65 H            5.9193    -4.3597    -2.8210 H            1    LIG   0.0000
  66 H            6.7703    -3.1636    -3.5364 H            1    LIG   0.0000
  67 H            7.2487    -3.7543    -2.0911 H            1    LIG   0.0000
@<TRIPOS>BOND
   1        1        2 1
   2        2        3 ar
   3        3        4 ar
   4        4        5 1
   5        5        6 2
   6        6        7 1
   7        7        8 1
   8        8        9 2
   9        9       10 1
  10       10       11 2
  11       11       12 1
  12       12        8 1
  13       12       13 1
  14       13       14 1
  15       14       15 1
  16       15       16 ar
  17       16       17 ar
  18       17       18 ar
  19       18       19 ar
  20       19       20 ar
  21       20       15 ar
  22        7       21 1
  23       21       22 1
  24       22       23 1
  25       23       24 1
  26       24       25 ar
  27       25       26 ar
  28       26       27 ar
  29       27       28 ar
  30       28       29 ar
  31       29       24 ar
  32       29       30 1
  33       30       21 1
  34        6       31 1
  35       31       32 2
  36       31       33 1
  37       33       34 1
  38       34        4 ar
  39       34       35 ar
  40       35       36 ar
  41       36        2 ar
  42       36       37 1
  43        7       38 1
  44       33       39 1
  45        1       40 1
  46        1       41 1
  47        1       42 1
  48        3       43 1
  49        5       44 1
  50       13       45 1
  51       13       46 1
  52       14       47 1
  53       14       48 1
  54       16       49 1
  55       17       50 1
  56       18       51 1
  57       19       52 1
  58       20       53 1
  59       22       54 1
  60       22       55 1
  61       23       56 1
  62       23       57 1
  63       25       58 1
  64       26       59 1
  65       27       60 1
  66       28       61 1
  67       30       62 1
  68       30       63 1
  69       35       64 1
  70       37       65 1
  71       37       66 1
  72       37       67 1

