@<TRIPOS>MOLECULE
*****
 67 72 0 0 0
SMALL
USER_CHARGES

@<TRIPOS>ATOM
      1 C1          7.5483   -0.8689   -1.9336 C.3     1  LIG1        0.0000
      2 C2          6.1116   -1.2490   -1.6133 C.3     1  LIG1        0.0000
      3 C3          5.3059   -0.3184   -0.9658 C.3     1  LIG1        0.0000
      4 C4          3.9907   -0.6595   -0.6699 C.3     1  LIG1        0.0000
      5 C5          3.1617    0.2865   -0.0084 C.2     1  LIG1        0.0000
      6 C6          1.8627   -0.0321    0.2918 C.2     1  LIG1        0.0000
      7 C7          1.0000    1.0000    1.0000 C.3     1  LIG1        0.0000
      8 C8          1.8773    1.8773    1.8773 C.2     1  LIG1        0.0000
      9 N9          2.0402    1.7589    3.1757 N.2     1  LIG1        0.0000
     10 N10         2.8734    2.6996    3.5563 N.2     1  LIG1        0.0000
     11 N11         3.2200    3.3793    2.5444 N.2     1  LIG1        0.0000
     12 N12         2.6386    2.9215    1.4661 N.pl3   1  LIG1        0.0000
     13 C13         2.7832    3.4384    0.0962 C.3     1  LIG1        0.0000
     14 C14         1.7312    4.5060   -0.1563 C.3     1  LIG1        0.0000
     15 C15         1.8807    5.0401   -1.5718 C.3     1  LIG1        0.0000
     16 C16         2.7121    6.1291   -1.8122 C.3     1  LIG1        0.0000
     17 C17         2.8424    6.6116   -3.1102 C.3     1  LIG1        0.0000
     18 C18         2.1457    6.0060   -4.1514 C.3     1  LIG1        0.0000
     19 C19         1.3166    4.9173   -3.9019 C.3     1  LIG1        0.0000
     20 C20         1.1801    4.4287   -2.6064 C.3     1  LIG1        0.0000
     21 N21         0.3149    1.8345    0.0016 N.3     1  LIG1        0.0000
     22 C22        -0.1813    0.9195   -1.0458 C.3     1  LIG1        0.0000
     23 C23        -1.4536    1.3852   -1.7505 C.3     1  LIG1        0.0000
     24 C24        -1.8290    2.8439   -1.5004 C.3     1  LIG1        0.0000
     25 C25        -2.4949    3.6254   -2.4421 C.3     1  LIG1        0.0000
     26 C26        -2.8284    4.9484   -2.1703 C.3     1  LIG1        0.0000
     27 C27        -2.5082    5.5200   -0.9435 C.3     1  LIG1        0.0000
     28 C28        -1.8432    4.7502    0.0058 C.3     1  LIG1        0.0000
     29 C29        -1.4976    3.4297   -0.2821 C.3     1  LIG1        0.0000
     30 C30        -0.7363    2.5781    0.7227 C.3     1  LIG1        0.0000
     31 C31         1.3509   -1.3102   -0.0612 C.2     1  LIG1        0.0000
     32 O32         0.1954   -1.5992    0.2039 O.2     1  LIG1        0.0000
     33 N33         2.1670   -2.2090   -0.6991 N.am    1  LIG1        0.0000
     34 C34         3.4686   -1.9053   -1.0066 C.3     1  LIG1        0.0000
     35 C35         4.2808   -2.8309   -1.6538 C.3     1  LIG1        0.0000
     36 C36         5.5978   -2.4973   -1.9534 C.3     1  LIG1        0.0000
     37 C37         6.4576   -3.5323   -2.6610 C.3     1  LIG1        0.0000
     38 H           0.3211    0.5341    1.5675 H       1  LIG1        0.0000
     39 H           1.8043   -3.1076   -0.9459 H       1  LIG1        0.0000
     40 H           7.7265    0.0612   -1.6125 H       1  LIG1        0.0000
     41 H           8.1709   -1.5043   -1.4769 H       1  LIG1        0.0000
     42 H           7.6924   -0.9136   -2.9222 H       1  LIG1        0.0000
     43 H           5.6663    0.5807   -0.7174 H       1  LIG1        0.0000
     44 H           3.5259    1.1846    0.2380 H       1  LIG1        0.0000
     45 H           2.6626    2.6906   -0.5567 H       1  LIG1        0.0000
     46 H           3.6943    3.8351   -0.0159 H       1  LIG1        0.0000
     47 H           0.8201    4.1094   -0.0441 H       1  LIG1        0.0000
     48 H           1.8518    5.2538    0.4966 H       1  LIG1        0.0000
     49 H           3.2105    6.5602   -1.0601 H       1  LIG1        0.0000
     50 H           3.4370    7.3941   -3.2951 H       1  LIG1        0.0000
     51 H           2.2414    6.3552   -5.0836 H       1  LIG1        0.0000
     52 H           0.8186    4.4855   -4.6539 H       1  LIG1        0.0000
     53 H           0.5849    3.6468   -2.4210 H       1  LIG1        0.0000
     54 H          -0.3667    0.0328   -0.6223 H       1  LIG1        0.0000
     55 H           0.5362    0.8164   -1.7347 H       1  LIG1        0.0000
     56 H          -1.3269    1.2613   -2.7346 H       1  LIG1        0.0000
     57 H          -2.2102    0.8115   -1.4370 H       1  LIG1        0.0000
     58 H          -2.7372    3.2289   -3.3276 H       1  LIG1        0.0000
     59 H          -3.3020    5.4928   -2.8626 H       1  LIG1        0.0000
     60 H          -2.7522    6.4696   -0.7467 H       1  LIG1        0.0000
     61 H          -1.6127    5.1440    0.8956 H       1  LIG1        0.0000
     62 H          -0.3191    3.1657    1.4160 H       1  LIG1        0.0000
     63 H          -1.3626    1.9352    1.1637 H       1  LIG1        0.0000
     64 H           3.9204   -3.7301   -1.9020 H       1  LIG1        0.0000
     65 H           5.9193   -4.3597   -2.8210 H       1  LIG1        0.0000
     66 H           6.7703   -3.1636   -3.5364 H       1  LIG1        0.0000
     67 H           7.2487   -3.7543   -2.0911 H       1  LIG1        0.0000
@<TRIPOS>BOND
     1     1     2    1
     2     2     3   ar
     3     3     4   ar
     4     4     5    1
     5     5     6    2
     6     6     7    1
     7     7     8    1
     8     8     9    2
     9     9    10    1
    10    10    11    2
    11    11    12    1
    12    12     8    1
    13    12    13    1
    14    13    14    1
    15    14    15    1
    16    15    16   ar
    17    16    17   ar
    18    17    18   ar
    19    18    19   ar
    20    19    20   ar
    21    20    15   ar
    22     7    21    1
    23    21    22    1
    24    22    23    1
    25    23    24    1
    26    24    25   ar
    27    25    26   ar
    28    26    27   ar
    29    27    28   ar
    30    28    29   ar
    31    29    24   ar
    32    29    30    1
    33    30    21    1
    34     6    31    1
    35    31    32    2
    36    31    33   am
    37    33    34    1
    38    34     4   ar
    39    34    35   ar
    40    35    36   ar
    41    36     2   ar
    42    36    37    1
    43     7    38    1
    44    33    39    1
    45     1    40    1
    46     1    41    1
    47     1    42    1
    48     3    43    1
    49     5    44    1
    50    13    45    1
    51    13    46    1
    52    14    47    1
    53    14    48    1
    54    16    49    1
    55    17    50    1
    56    18    51    1
    57    19    52    1
    58    20    53    1
    59    22    54    1
    60    22    55    1
    61    23    56    1
    62    23    57    1
    63    25    58    1
    64    26    59    1
    65    27    60    1
    66    28    61    1
    67    30    62    1
    68    30    63    1
    69    35    64    1
    70    37    65    1
    71    37    66    1
    72    37    67    1
