@<TRIPOS>MOLECULE
*****
 67 72 0 0 0
SMALL
USER_CHARGES

@<TRIPOS>ATOM
      1 C1          3.3152   -6.0199    0.4166 C.3     1  LIG1        0.0000
      2 C2          3.3677   -4.5876   -0.0903 C.3     1  LIG1        0.0000
      3 C3          2.5860   -3.6283    0.5446 C.3     1  LIG1        0.0000
      4 C4          2.6293   -2.3162    0.0861 C.3     1  LIG1        0.0000
      5 C5          1.8332   -1.3306    0.7301 C.2     1  LIG1        0.0000
      6 C6          1.8627   -0.0321    0.2918 C.2     1  LIG1        0.0000
      7 C7          1.0000    1.0000    1.0000 C.3     1  LIG1        0.0000
      8 C8          1.8773    1.8773    1.8773 C.2     1  LIG1        0.0000
      9 N9          2.7474    2.7685    1.4589 N.2     1  LIG1        0.0000
     10 N10         3.2962    3.3129    2.5202 N.2     1  LIG1        0.0000
     11 N11         2.7947    2.7892    3.5597 N.2     1  LIG1        0.0000
     12 N12         1.9042    1.8890    3.2331 N.pl3   1  LIG1        0.0000
     13 C13         1.1039    1.0631    4.1508 C.3     1  LIG1        0.0000
     14 C14        -0.1944    1.7826    4.4785 C.3     1  LIG1        0.0000
     15 C15        -1.0213    0.9293    5.4268 C.3     1  LIG1        0.0000
     16 C16        -1.9293    0.0103    4.9112 C.3     1  LIG1        0.0000
     17 C17        -2.6823   -0.7658    5.7860 C.3     1  LIG1        0.0000
     18 C18        -2.5230   -0.6189    7.1606 C.3     1  LIG1        0.0000
     19 C19        -1.6123    0.3025    7.6674 C.3     1  LIG1        0.0000
     20 C20        -0.8557    1.0832    6.7993 C.3     1  LIG1        0.0000
     21 N21         0.3150    1.8343    0.0018 N.3     1  LIG1        0.0000
     22 C22        -0.2270    1.0055   -1.0846 C.3     1  LIG1        0.0000
     23 C23        -0.6714    1.9352   -2.2010 C.3     1  LIG1        0.0000
     24 C24        -1.5487    3.0763   -1.7106 C.3     1  LIG1        0.0000
     25 C25        -2.3351    3.7778   -2.6180 C.3     1  LIG1        0.0000
     26 C26        -3.1196    4.8355   -2.1679 C.3     1  LIG1        0.0000
     27 C27        -3.1143    5.1812   -0.8199 C.3     1  LIG1        0.0000
     28 C28        -2.3338    4.4761    0.0908 C.3     1  LIG1        0.0000
     29 C29        -1.5624    3.4139   -0.3603 C.3     1  LIG1        0.0000
     30 C30        -0.7520    2.6106    0.6437 C.3     1  LIG1        0.0000
     31 C31         2.6914    0.3222   -0.8071 C.2     1  LIG1        0.0000
     32 O32         2.7213    1.4765   -1.2016 O.2     1  LIG1        0.0000
     33 N33         3.4521   -0.6436   -1.4149 N.am    1  LIG1        0.0000
     34 C34         3.4340   -1.9468   -0.9881 C.3     1  LIG1        0.0000
     35 C35         4.2128   -2.9122   -1.6182 C.3     1  LIG1        0.0000
     36 C36         4.1750   -4.2271   -1.1655 C.3     1  LIG1        0.0000
     37 C37         5.0385   -5.2565   -1.8767 C.3     1  LIG1        0.0000
     38 H           0.3211    0.5341    1.5675 H       1  LIG1        0.0000
     39 H           4.0341   -0.3914   -2.1880 H       1  LIG1        0.0000
     40 H           2.6827   -6.0771    1.1891 H       1  LIG1        0.0000
     41 H           3.0004   -6.6218   -0.3173 H       1  LIG1        0.0000
     42 H           4.2279   -6.3028    0.7114 H       1  LIG1        0.0000
     43 H           2.0027   -3.8779    1.3176 H       1  LIG1        0.0000
     44 H           1.2515   -1.5844    1.5029 H       1  LIG1        0.0000
     45 H           1.6194    0.9056    4.9931 H       1  LIG1        0.0000
     46 H           0.8984    0.1860    3.7168 H       1  LIG1        0.0000
     47 H           0.0111    2.6598    4.9126 H       1  LIG1        0.0000
     48 H          -0.7099    1.9401    3.6363 H       1  LIG1        0.0000
     49 H          -2.0395   -0.0912    3.9225 H       1  LIG1        0.0000
     50 H          -3.3384   -1.4296    5.4270 H       1  LIG1        0.0000
     51 H          -3.0657   -1.1783    7.7870 H       1  LIG1        0.0000
     52 H          -1.5015    0.4037    8.6561 H       1  LIG1        0.0000
     53 H          -0.2001    1.7477    7.1581 H       1  LIG1        0.0000
     54 H          -1.0075    0.4763   -0.7517 H       1  LIG1        0.0000
     55 H           0.4788    0.3823   -1.4215 H       1  LIG1        0.0000
     56 H           0.1417    2.3226   -2.6357 H       1  LIG1        0.0000
     57 H          -1.1868    1.4030   -2.8727 H       1  LIG1        0.0000
     58 H          -2.3368    3.5244   -3.5853 H       1  LIG1        0.0000
     59 H          -3.6871    5.3471   -2.8132 H       1  LIG1        0.0000
     60 H          -3.6774    5.9443   -0.5025 H       1  LIG1        0.0000
     61 H          -2.3286    4.7312    1.0577 H       1  LIG1        0.0000
     62 H          -0.3403    3.2403    1.3025 H       1  LIG1        0.0000
     63 H          -1.3647    1.9814    1.1220 H       1  LIG1        0.0000
     64 H           4.7958   -2.6626   -2.3913 H       1  LIG1        0.0000
     65 H           5.5438   -4.8134   -2.6171 H       1  LIG1        0.0000
     66 H           5.6836   -5.6572   -1.2261 H       1  LIG1        0.0000
     67 H           4.4561   -5.9762   -2.2547 H       1  LIG1        0.0000
@<TRIPOS>BOND
     1     1     2    1
     2     2     3   ar
     3     3     4   ar
     4     4     5    1
     5     5     6    2
     6     6     7    1
     7     7     8    1
     8     8     9    2
     9     9    10    1
    10    10    11    2
    11    11    12    1
    12    12     8    1
    13    12    13    1
    14    13    14    1
    15    14    15    1
    16    15    16   ar
    17    16    17   ar
    18    17    18   ar
    19    18    19   ar
    20    19    20   ar
    21    20    15   ar
    22     7    21    1
    23    21    22    1
    24    22    23    1
    25    23    24    1
    26    24    25   ar
    27    25    26   ar
    28    26    27   ar
    29    27    28   ar
    30    28    29   ar
    31    29    24   ar
    32    29    30    1
    33    30    21    1
    34     6    31    1
    35    31    32    2
    36    31    33   am
    37    33    34    1
    38    34     4   ar
    39    34    35   ar
    40    35    36   ar
    41    36     2   ar
    42    36    37    1
    43     7    38    1
    44    33    39    1
    45     1    40    1
    46     1    41    1
    47     1    42    1
    48     3    43    1
    49     5    44    1
    50    13    45    1
    51    13    46    1
    52    14    47    1
    53    14    48    1
    54    16    49    1
    55    17    50    1
    56    18    51    1
    57    19    52    1
    58    20    53    1
    59    22    54    1
    60    22    55    1
    61    23    56    1
    62    23    57    1
    63    25    58    1
    64    26    59    1
    65    27    60    1
    66    28    61    1
    67    30    62    1
    68    30    63    1
    69    35    64    1
    70    37    65    1
    71    37    66    1
    72    37    67    1
