@<TRIPOS>MOLECULE
*****
 67 72 0 0 0
SMALL
USER_CHARGES

@<TRIPOS>ATOM
      1 C1          7.0471   -3.2909    0.9853 C.3     1  LIG1        0.0000
      2 C2          5.7866   -2.8189    0.2785 C.3     1  LIG1        0.0000
      3 C3          4.9840   -1.8746    0.9099 C.3     1  LIG1        0.0000
      4 C4          3.8296   -1.4384    0.2690 C.3     1  LIG1        0.0000
      5 C5          3.0047   -0.4736    0.9081 C.2     1  LIG1        0.0000
      6 C6          1.8627   -0.0321    0.2918 C.2     1  LIG1        0.0000
      7 C7          1.0000    1.0000    1.0000 C.3     1  LIG1        0.0000
      8 C8          1.8773    1.8773    1.8773 C.2     1  LIG1        0.0000
      9 N9          2.7474    2.7685    1.4589 N.2     1  LIG1        0.0000
     10 N10         3.2962    3.3129    2.5202 N.2     1  LIG1        0.0000
     11 N11         2.7947    2.7892    3.5597 N.2     1  LIG1        0.0000
     12 N12         1.9042    1.8890    3.2331 N.pl3   1  LIG1        0.0000
     13 C13         1.1039    1.0631    4.1508 C.3     1  LIG1        0.0000
     14 C14         1.8509   -0.2252    4.4553 C.3     1  LIG1        0.0000
     15 C15         1.0239   -1.0785    5.4036 C.3     1  LIG1        0.0000
     16 C16         1.1834   -0.9320    6.7776 C.3     1  LIG1        0.0000
     17 C17         0.4232   -1.7173    7.6379 C.3     1  LIG1        0.0000
     18 C18        -0.4848   -2.6369    7.1220 C.3     1  LIG1        0.0000
     19 C19        -0.6379   -2.7765    5.7464 C.3     1  LIG1        0.0000
     20 C20         0.1190   -1.9954    4.8789 C.3     1  LIG1        0.0000
     21 N21         0.3148    1.8345    0.0015 N.3     1  LIG1        0.0000
     22 C22         1.2790    2.7008   -0.6931 C.3     1  LIG1        0.0000
     23 C23         0.5634    3.4172   -1.8314 C.3     1  LIG1        0.0000
     24 C24        -0.7429    4.0625   -1.4096 C.3     1  LIG1        0.0000
     25 C25        -1.2940    5.0556   -2.2139 C.3     1  LIG1        0.0000
     26 C26        -2.5089    5.6505   -1.8839 C.3     1  LIG1        0.0000
     27 C27        -3.1664    5.2366   -0.7295 C.3     1  LIG1        0.0000
     28 C28        -2.6056    4.2494    0.0752 C.3     1  LIG1        0.0000
     29 C29        -1.3883    3.6586   -0.2448 C.3     1  LIG1        0.0000
     30 C30        -0.7533    2.6092    0.6545 C.3     1  LIG1        0.0000
     31 C31         1.5091   -0.5430   -0.9865 C.2     1  LIG1        0.0000
     32 O32         0.4934   -0.1537   -1.5396 O.2     1  LIG1        0.0000
     33 N33         2.3184   -1.4734   -1.5865 N.am    1  LIG1        0.0000
     34 C34         3.4642   -1.9250   -0.9832 C.3     1  LIG1        0.0000
     35 C35         4.2720   -2.8696   -1.6081 C.3     1  LIG1        0.0000
     36 C36         5.4287   -3.3111   -0.9735 C.3     1  LIG1        0.0000
     37 C37         6.2884   -4.3438   -1.6845 C.3     1  LIG1        0.0000
     38 H           0.3211    0.5341    1.5675 H       1  LIG1        0.0000
     39 H           2.0670   -1.8313   -2.4858 H       1  LIG1        0.0000
     40 H           7.1297   -2.8248    1.8661 H       1  LIG1        0.0000
     41 H           6.9958   -4.2784    1.1343 H       1  LIG1        0.0000
     42 H           7.8448   -3.0800    0.4204 H       1  LIG1        0.0000
     43 H           5.2328   -1.5155    1.8094 H       1  LIG1        0.0000
     44 H           3.2573   -0.1169    1.8075 H       1  LIG1        0.0000
     45 H           0.2257    0.8464    3.7244 H       1  LIG1        0.0000
     46 H           0.9466    1.5661    5.0007 H       1  LIG1        0.0000
     47 H           2.0081   -0.7281    3.6054 H       1  LIG1        0.0000
     48 H           2.7291   -0.0085    4.8817 H       1  LIG1        0.0000
     49 H           1.8372   -0.2694    7.1428 H       1  LIG1        0.0000
     50 H           0.5293   -1.6210    8.6276 H       1  LIG1        0.0000
     51 H          -1.0299   -3.2000    7.7430 H       1  LIG1        0.0000
     52 H          -1.2922   -3.4386    5.3810 H       1  LIG1        0.0000
     53 H           0.0136   -2.0921    3.8892 H       1  LIG1        0.0000
     54 H           2.0249    2.1459   -1.0613 H       1  LIG1        0.0000
     55 H           1.6489    3.3735   -0.0523 H       1  LIG1        0.0000
     56 H           1.1682    4.1293   -2.1878 H       1  LIG1        0.0000
     57 H           0.3701    2.7522   -2.5527 H       1  LIG1        0.0000
     58 H          -0.8109    5.3459   -3.0400 H       1  LIG1        0.0000
     59 H          -2.9017    6.3625   -2.4660 H       1  LIG1        0.0000
     60 H          -4.0422    5.6487   -0.4781 H       1  LIG1        0.0000
     61 H          -3.0884    3.9586    0.9012 H       1  LIG1        0.0000
     62 H          -0.3654    3.0707    1.4523 H       1  LIG1        0.0000
     63 H          -1.4670    1.9745    0.9508 H       1  LIG1        0.0000
     64 H           4.0230   -3.2288   -2.5074 H       1  LIG1        0.0000
     65 H           5.8733   -4.5740   -2.5647 H       1  LIG1        0.0000
     66 H           7.2032   -3.9691   -1.8352 H       1  LIG1        0.0000
     67 H           6.3541   -5.1675   -1.1213 H       1  LIG1        0.0000
@<TRIPOS>BOND
     1     1     2    1
     2     2     3   ar
     3     3     4   ar
     4     4     5    1
     5     5     6    2
     6     6     7    1
     7     7     8    1
     8     8     9    2
     9     9    10    1
    10    10    11    2
    11    11    12    1
    12    12     8    1
    13    12    13    1
    14    13    14    1
    15    14    15    1
    16    15    16   ar
    17    16    17   ar
    18    17    18   ar
    19    18    19   ar
    20    19    20   ar
    21    20    15   ar
    22     7    21    1
    23    21    22    1
    24    22    23    1
    25    23    24    1
    26    24    25   ar
    27    25    26   ar
    28    26    27   ar
    29    27    28   ar
    30    28    29   ar
    31    29    24   ar
    32    29    30    1
    33    30    21    1
    34     6    31    1
    35    31    32    2
    36    31    33   am
    37    33    34    1
    38    34     4   ar
    39    34    35   ar
    40    35    36   ar
    41    36     2   ar
    42    36    37    1
    43     7    38    1
    44    33    39    1
    45     1    40    1
    46     1    41    1
    47     1    42    1
    48     3    43    1
    49     5    44    1
    50    13    45    1
    51    13    46    1
    52    14    47    1
    53    14    48    1
    54    16    49    1
    55    17    50    1
    56    18    51    1
    57    19    52    1
    58    20    53    1
    59    22    54    1
    60    22    55    1
    61    23    56    1
    62    23    57    1
    63    25    58    1
    64    26    59    1
    65    27    60    1
    66    28    61    1
    67    30    62    1
    68    30    63    1
    69    35    64    1
    70    37    65    1
    71    37    66    1
    72    37    67    1
