@<TRIPOS>MOLECULE
*****
 67 72 0 0 0
SMALL
USER_CHARGES

@<TRIPOS>ATOM
      1 C1          7.5483   -0.8689   -1.9336 C.3     1  LIG1        0.0000
      2 C2          6.1116   -1.2490   -1.6133 C.3     1  LIG1        0.0000
      3 C3          5.3059   -0.3184   -0.9658 C.3     1  LIG1        0.0000
      4 C4          3.9907   -0.6595   -0.6699 C.3     1  LIG1        0.0000
      5 C5          3.1617    0.2865   -0.0084 C.2     1  LIG1        0.0000
      6 C6          1.8627   -0.0321    0.2918 C.2     1  LIG1        0.0000
      7 C7          1.0000    1.0000    1.0000 C.3     1  LIG1        0.0000
      8 C8          1.8773    1.8773    1.8773 C.2     1  LIG1        0.0000
      9 N9          3.0810    1.5810    2.3127 N.2     1  LIG1        0.0000
     10 N10         3.5008    2.5951    3.0334 N.2     1  LIG1        0.0000
     11 N11         2.6030    3.4896    3.0511 N.2     1  LIG1        0.0000
     12 N12         1.5660    3.1093    2.3509 N.pl3   1  LIG1        0.0000
     13 C13         0.3232    3.8651    2.1295 C.3     1  LIG1        0.0000
     14 C14        -0.6753    3.5306    3.2256 C.3     1  LIG1        0.0000
     15 C15        -1.9594    4.3116    2.9968 C.3     1  LIG1        0.0000
     16 C16        -2.1082    5.5728    3.5643 C.3     1  LIG1        0.0000
     17 C17        -3.2866    6.2800    3.3505 C.3     1  LIG1        0.0000
     18 C18        -4.3009    5.7252    2.5759 C.3     1  LIG1        0.0000
     19 C19        -4.1434    4.4633    2.0120 C.3     1  LIG1        0.0000
     20 C20        -2.9681    3.7490    2.2215 C.3     1  LIG1        0.0000
     21 N21         0.3150    1.8343    0.0018 N.3     1  LIG1        0.0000
     22 C22         1.2521    2.2674   -1.0448 C.3     1  LIG1        0.0000
     23 C23         0.5590    3.3329   -1.8772 C.3     1  LIG1        0.0000
     24 C24        -0.8310    2.9192   -2.3345 C.3     1  LIG1        0.0000
     25 C25        -1.4355    3.5914   -3.3911 C.3     1  LIG1        0.0000
     26 C26        -2.7166    3.2237   -3.7917 C.3     1  LIG1        0.0000
     27 C27        -3.3801    2.1898   -3.1378 C.3     1  LIG1        0.0000
     28 C28        -2.7743    1.5112   -2.0851 C.3     1  LIG1        0.0000
     29 C29        -1.4915    1.8729   -1.6969 C.3     1  LIG1        0.0000
     30 C30        -0.8101    1.0956   -0.5827 C.3     1  LIG1        0.0000
     31 C31         1.3509   -1.3102   -0.0612 C.2     1  LIG1        0.0000
     32 O32         0.1954   -1.5992    0.2039 O.2     1  LIG1        0.0000
     33 N33         2.1670   -2.2090   -0.6991 N.am    1  LIG1        0.0000
     34 C34         3.4686   -1.9053   -1.0066 C.3     1  LIG1        0.0000
     35 C35         4.2808   -2.8309   -1.6538 C.3     1  LIG1        0.0000
     36 C36         5.5978   -2.4973   -1.9534 C.3     1  LIG1        0.0000
     37 C37         6.4576   -3.5323   -2.6610 C.3     1  LIG1        0.0000
     38 H           0.3211    0.5341    1.5675 H       1  LIG1        0.0000
     39 H           1.8043   -3.1076   -0.9459 H       1  LIG1        0.0000
     40 H           7.7265    0.0612   -1.6125 H       1  LIG1        0.0000
     41 H           8.1709   -1.5043   -1.4769 H       1  LIG1        0.0000
     42 H           7.6924   -0.9136   -2.9222 H       1  LIG1        0.0000
     43 H           5.6663    0.5807   -0.7174 H       1  LIG1        0.0000
     44 H           3.5259    1.1846    0.2380 H       1  LIG1        0.0000
     45 H          -0.0628    3.6189    1.2405 H       1  LIG1        0.0000
     46 H           0.5215    4.8451    2.1469 H       1  LIG1        0.0000
     47 H          -0.8735    2.5506    3.2082 H       1  LIG1        0.0000
     48 H          -0.2892    3.7769    4.1146 H       1  LIG1        0.0000
     49 H          -1.3759    5.9667    4.1198 H       1  LIG1        0.0000
     50 H          -3.4050    7.1875    3.7535 H       1  LIG1        0.0000
     51 H          -5.1470    6.2361    2.4239 H       1  LIG1        0.0000
     52 H          -4.8753    4.0695    1.4559 H       1  LIG1        0.0000
     53 H          -2.8497    2.8411    1.8192 H       1  LIG1        0.0000
     54 H           1.4982    1.4901   -1.6238 H       1  LIG1        0.0000
     55 H           2.0777    2.6461   -0.6266 H       1  LIG1        0.0000
     56 H           0.4792    4.1646   -1.3277 H       1  LIG1        0.0000
     57 H           1.1178    3.5195   -2.6852 H       1  LIG1        0.0000
     58 H          -0.9539    4.3324   -3.8590 H       1  LIG1        0.0000
     59 H          -3.1602    3.7024   -4.5494 H       1  LIG1        0.0000
     60 H          -4.3018    1.9320   -3.4276 H       1  LIG1        0.0000
     61 H          -3.2567    0.7725   -1.6143 H       1  LIG1        0.0000
     62 H          -1.4801    0.9084    0.1355 H       1  LIG1        0.0000
     63 H          -0.4697    0.2319   -0.9544 H       1  LIG1        0.0000
     64 H           3.9204   -3.7301   -1.9020 H       1  LIG1        0.0000
     65 H           5.9193   -4.3597   -2.8210 H       1  LIG1        0.0000
     66 H           6.7703   -3.1636   -3.5364 H       1  LIG1        0.0000
     67 H           7.2487   -3.7543   -2.0911 H       1  LIG1        0.0000
@<TRIPOS>BOND
     1     1     2    1
     2     2     3   ar
     3     3     4   ar
     4     4     5    1
     5     5     6    2
     6     6     7    1
     7     7     8    1
     8     8     9    2
     9     9    10    1
    10    10    11    2
    11    11    12    1
    12    12     8    1
    13    12    13    1
    14    13    14    1
    15    14    15    1
    16    15    16   ar
    17    16    17   ar
    18    17    18   ar
    19    18    19   ar
    20    19    20   ar
    21    20    15   ar
    22     7    21    1
    23    21    22    1
    24    22    23    1
    25    23    24    1
    26    24    25   ar
    27    25    26   ar
    28    26    27   ar
    29    27    28   ar
    30    28    29   ar
    31    29    24   ar
    32    29    30    1
    33    30    21    1
    34     6    31    1
    35    31    32    2
    36    31    33   am
    37    33    34    1
    38    34     4   ar
    39    34    35   ar
    40    35    36   ar
    41    36     2   ar
    42    36    37    1
    43     7    38    1
    44    33    39    1
    45     1    40    1
    46     1    41    1
    47     1    42    1
    48     3    43    1
    49     5    44    1
    50    13    45    1
    51    13    46    1
    52    14    47    1
    53    14    48    1
    54    16    49    1
    55    17    50    1
    56    18    51    1
    57    19    52    1
    58    20    53    1
    59    22    54    1
    60    22    55    1
    61    23    56    1
    62    23    57    1
    63    25    58    1
    64    26    59    1
    65    27    60    1
    66    28    61    1
    67    30    62    1
    68    30    63    1
    69    35    64    1
    70    37    65    1
    71    37    66    1
    72    37    67    1
