@<TRIPOS>MOLECULE
*****
 67 72 0 0 0
SMALL
USER_CHARGES

@<TRIPOS>ATOM
      1 C1          4.2834   -1.3410   -5.2224 C.3     1  LIG1        0.0000
      2 C2          3.9956   -1.5548   -3.7450 C.3     1  LIG1        0.0000
      3 C3          3.2079   -0.6219   -3.0790 C.3     1  LIG1        0.0000
      4 C4          2.9406   -0.8113   -1.7276 C.3     1  LIG1        0.0000
      5 C5          2.1365    0.1380   -1.0406 C.2     1  LIG1        0.0000
      6 C6          1.8627   -0.0321    0.2918 C.2     1  LIG1        0.0000
      7 C7          1.0000    1.0000    1.0000 C.3     1  LIG1        0.0000
      8 C8          1.8773    1.8773    1.8773 C.2     1  LIG1        0.0000
      9 N9          2.0402    1.7589    3.1757 N.2     1  LIG1        0.0000
     10 N10         2.8734    2.6996    3.5563 N.2     1  LIG1        0.0000
     11 N11         3.2200    3.3793    2.5444 N.2     1  LIG1        0.0000
     12 N12         2.6386    2.9215    1.4661 N.pl3   1  LIG1        0.0000
     13 C13         2.7832    3.4384    0.0962 C.3     1  LIG1        0.0000
     14 C14         3.9349    2.7267   -0.5949 C.3     1  LIG1        0.0000
     15 C15         4.0844    3.2608   -2.0104 C.3     1  LIG1        0.0000
     16 C16         3.3883    2.6553   -3.0514 C.3     1  LIG1        0.0000
     17 C17         3.5315    3.1499   -4.3435 C.3     1  LIG1        0.0000
     18 C18         4.3635    4.2391   -4.5839 C.3     1  LIG1        0.0000
     19 C19         5.0557    4.8386   -3.5367 C.3     1  LIG1        0.0000
     20 C20         4.9186    4.3497   -2.2414 C.3     1  LIG1        0.0000
     21 N21         0.3148    1.8345    0.0015 N.3     1  LIG1        0.0000
     22 C22        -0.1185    3.1044    0.6033 C.3     1  LIG1        0.0000
     23 C23        -0.6638    4.0073   -0.4961 C.3     1  LIG1        0.0000
     24 C24        -1.6620    3.3145   -1.4041 C.3     1  LIG1        0.0000
     25 C25        -2.5164    4.0905   -2.1818 C.3     1  LIG1        0.0000
     26 C26        -3.4241    3.4976   -3.0553 C.3     1  LIG1        0.0000
     27 C27        -3.4664    2.1091   -3.1378 C.3     1  LIG1        0.0000
     28 C28        -2.6154    1.3388   -2.3508 C.3     1  LIG1        0.0000
     29 C29        -1.7136    1.9255   -1.4701 C.3     1  LIG1        0.0000
     30 C30        -0.8117    1.0854   -0.5791 C.3     1  LIG1        0.0000
     31 C31         2.3859   -1.1599    0.9804 C.2     1  LIG1        0.0000
     32 O32         2.1455   -1.3160    2.1666 O.2     1  LIG1        0.0000
     33 N33         3.1597   -2.0645    0.2995 N.am    1  LIG1        0.0000
     34 C34         3.4424   -1.9088   -1.0334 C.3     1  LIG1        0.0000
     35 C35         4.2297   -2.8374   -1.7065 C.3     1  LIG1        0.0000
     36 C36         4.5017   -2.6550   -3.0585 C.3     1  LIG1        0.0000
     37 C37         5.3654   -3.6888   -3.7632 C.3     1  LIG1        0.0000
     38 H           0.3211    0.5341    1.5675 H       1  LIG1        0.0000
     39 H           3.5267   -2.8570    0.7868 H       1  LIG1        0.0000
     40 H           3.8356   -0.5019   -5.5312 H       1  LIG1        0.0000
     41 H           5.2706   -1.2627   -5.3617 H       1  LIG1        0.0000
     42 H           3.9334   -2.1177   -5.7460 H       1  LIG1        0.0000
     43 H           2.8401    0.1717   -3.5637 H       1  LIG1        0.0000
     44 H           1.7704    0.9300   -1.5291 H       1  LIG1        0.0000
     45 H           2.9694    4.4204    0.1283 H       1  LIG1        0.0000
     46 H           1.9377    3.2759   -0.4124 H       1  LIG1        0.0000
     47 H           4.7805    2.8892   -0.0863 H       1  LIG1        0.0000
     48 H           3.7488    1.7447   -0.6270 H       1  LIG1        0.0000
     49 H           2.7915    1.8730   -2.8728 H       1  LIG1        0.0000
     50 H           3.0362    2.7227   -5.0999 H       1  LIG1        0.0000
     51 H           4.4644    4.5925   -5.5139 H       1  LIG1        0.0000
     52 H           5.6519    5.6214   -3.7150 H       1  LIG1        0.0000
     53 H           5.4143    4.7763   -1.4849 H       1  LIG1        0.0000
     54 H           0.6593    3.5484    1.0481 H       1  LIG1        0.0000
     55 H          -0.8338    2.9290    1.2798 H       1  LIG1        0.0000
     56 H          -1.1147    4.7907   -0.0684 H       1  LIG1        0.0000
     57 H           0.1028    4.3270   -1.0530 H       1  LIG1        0.0000
     58 H          -2.4779    5.0873   -2.1122 H       1  LIG1        0.0000
     59 H          -4.0347    4.0594   -3.6134 H       1  LIG1        0.0000
     60 H          -4.1083    1.6648   -3.7626 H       1  LIG1        0.0000
     61 H          -2.6535    0.3419   -2.4202 H       1  LIG1        0.0000
     62 H          -1.3633    0.7158    0.1687 H       1  LIG1        0.0000
     63 H          -0.4423    0.3330   -1.1243 H       1  LIG1        0.0000
     64 H           4.5977   -3.6308   -1.2216 H       1  LIG1        0.0000
     65 H           5.6326   -4.3994   -3.1123 H       1  LIG1        0.0000
     66 H           4.8472   -4.1010   -4.5126 H       1  LIG1        0.0000
     67 H           6.1843   -3.2460   -4.1282 H       1  LIG1        0.0000
@<TRIPOS>BOND
     1     1     2    1
     2     2     3   ar
     3     3     4   ar
     4     4     5    1
     5     5     6    2
     6     6     7    1
     7     7     8    1
     8     8     9    2
     9     9    10    1
    10    10    11    2
    11    11    12    1
    12    12     8    1
    13    12    13    1
    14    13    14    1
    15    14    15    1
    16    15    16   ar
    17    16    17   ar
    18    17    18   ar
    19    18    19   ar
    20    19    20   ar
    21    20    15   ar
    22     7    21    1
    23    21    22    1
    24    22    23    1
    25    23    24    1
    26    24    25   ar
    27    25    26   ar
    28    26    27   ar
    29    27    28   ar
    30    28    29   ar
    31    29    24   ar
    32    29    30    1
    33    30    21    1
    34     6    31    1
    35    31    32    2
    36    31    33   am
    37    33    34    1
    38    34     4   ar
    39    34    35   ar
    40    35    36   ar
    41    36     2   ar
    42    36    37    1
    43     7    38    1
    44    33    39    1
    45     1    40    1
    46     1    41    1
    47     1    42    1
    48     3    43    1
    49     5    44    1
    50    13    45    1
    51    13    46    1
    52    14    47    1
    53    14    48    1
    54    16    49    1
    55    17    50    1
    56    18    51    1
    57    19    52    1
    58    20    53    1
    59    22    54    1
    60    22    55    1
    61    23    56    1
    62    23    57    1
    63    25    58    1
    64    26    59    1
    65    27    60    1
    66    28    61    1
    67    30    62    1
    68    30    63    1
    69    35    64    1
    70    37    65    1
    71    37    66    1
    72    37    67    1
