@<TRIPOS>MOLECULE

  22   23
SMALL
USER_CHARGES
@<TRIPOS>ATOM
   1 C1           0.3887    -0.2817     1.0019 C.3          1    LIG   0.0000
   2 O2           1.0000     1.0000     1.0000 O.3          1    LIG   0.0000
   3 C3           2.3471     1.0000     1.0000 C.ar         1    LIG   0.0000
   4 C4           3.0418    -0.2041     0.9985 C.ar         1    LIG   0.0000
   5 C5           4.4313    -0.1829     0.9939 C.ar         1    LIG   0.0000
   6 C6           5.0929     1.0421     0.9909 C.ar         1    LIG   0.0000
   7 C7           4.3972     2.2326     0.9892 C.ar         1    LIG   0.0000
   8 C8           3.0073     2.2236     0.9982 C.ar         1    LIG   0.0000
   9 C9           5.3711     3.3946     0.9622 C.3          1    LIG   0.0000
  10 C10          6.6582     2.7693     1.4588 C.3          1    LIG   0.0000
  11 C11          6.5010     1.3438     0.9723 C.2          1    LIG   0.0000
  12 O12          7.3998     0.6071     0.5981 O.2          1    LIG   0.0000
  13 H           -0.6058    -0.1766     1.0017 H            1    LIG   0.0000
  14 H            0.6707    -0.7867     0.1861 H            1    LIG   0.0000
  15 H            0.6707    -0.7843     1.8191 H            1    LIG   0.0000
  16 H            2.5483    -1.0739     1.0008 H            1    LIG   0.0000
  17 H            4.9500    -1.0378     0.9928 H            1    LIG   0.0000
  18 H            2.4921     3.0807     1.0033 H            1    LIG   0.0000
  19 H            5.0707     4.1299     1.5697 H            1    LIG   0.0000
  20 H            5.4793     3.7518     0.0345 H            1    LIG   0.0000
  21 H            7.4594     3.2086     1.0526 H            1    LIG   0.0000
  22 H            6.7248     2.8108     2.4557 H            1    LIG   0.0000
@<TRIPOS>BOND
   1        1        2 1
   2        2        3 1
   3        3        4 ar
   4        4        5 ar
   5        5        6 ar
   6        6        7 ar
   7        7        8 ar
   8        8        3 ar
   9        7        9 1
  10        9       10 1
  11       10       11 1
  12       11        6 1
  13       11       12 2
  14        1       13 1
  15        1       14 1
  16        1       15 1
  17        4       16 1
  18        5       17 1
  19        8       18 1
  20        9       19 1
  21        9       20 1
  22       10       21 1
  23       10       22 1

@<TRIPOS>MOLECULE

  22   23
SMALL
USER_CHARGES
@<TRIPOS>ATOM
   1 C1           0.3887    -0.2817     1.0019 C.3          1    LIG   0.0000
   2 O2           1.0000     1.0000     1.0000 O.3          1    LIG   0.0000
   3 C3           2.3471     1.0000     1.0000 C.ar         1    LIG   0.0000
   4 C4           3.0418    -0.1310     0.5868 C.ar         1    LIG   0.0000
   5 C5           4.4313    -0.1095     0.5897 C.ar         1    LIG   0.0000
   6 C6           5.0929     1.0426     1.0058 C.ar         1    LIG   0.0000
   7 C7           4.3972     2.1620     1.4115 C.ar         1    LIG   0.0000
   8 C8           3.0073     2.1504     1.4168 C.ar         1    LIG   0.0000
   9 C9           5.3711     3.2631     1.7835 C.3          1    LIG   0.0000
  10 C10          6.6582     2.5056     2.0363 C.3          1    LIG   0.0000
  11 C11          6.5010     1.3326     1.0916 C.2          1    LIG   0.0000
  12 O12          7.3998     0.7683     0.4879 O.2          1    LIG   0.0000
  13 H           -0.6058    -0.1766     1.0017 H            1    LIG   0.0000
  14 H            0.6707    -0.7867     0.1861 H            1    LIG   0.0000
  15 H            0.6707    -0.7843     1.8191 H            1    LIG   0.0000
  16 H            2.5483    -0.9491     0.2914 H            1    LIG   0.0000
  17 H            4.9500    -0.9125     0.2963 H            1    LIG   0.0000
  18 H            2.4921     2.9541     1.7147 H            1    LIG   0.0000
  19 H            5.0707     3.7463     2.6058 H            1    LIG   0.0000
  20 H            5.4793     3.9161     1.0339 H            1    LIG   0.0000
  21 H            7.4594     3.0575     1.8048 H            1    LIG   0.0000
  22 H            6.7248     2.2037     2.9873 H            1    LIG   0.0000
@<TRIPOS>BOND
   1        1        2 1
   2        2        3 1
   3        3        4 ar
   4        4        5 ar
   5        5        6 ar
   6        6        7 ar
   7        7        8 ar
   8        8        3 ar
   9        7        9 1
  10        9       10 1
  11       10       11 1
  12       11        6 1
  13       11       12 2
  14        1       13 1
  15        1       14 1
  16        1       15 1
  17        4       16 1
  18        5       17 1
  19        8       18 1
  20        9       19 1
  21        9       20 1
  22       10       21 1
  23       10       22 1

@<TRIPOS>MOLECULE

  22   23
SMALL
USER_CHARGES
@<TRIPOS>ATOM
   1 C1           0.3887    -0.2817     1.0019 C.3          1    LIG   0.0000
   2 O2           1.0000     1.0000     1.0000 O.3          1    LIG   0.0000
   3 C3           2.3471     1.0000     1.0000 C.ar         1    LIG   0.0000
   4 C4           3.0418    -0.1320     1.4105 C.ar         1    LIG   0.0000
   5 C5           4.4313    -0.1137     1.3989 C.ar         1    LIG   0.0000
   6 C6           5.0929     1.0364     0.9771 C.ar         1    LIG   0.0000
   7 C7           4.3972     2.1546     0.5683 C.ar         1    LIG   0.0000
   8 C8           3.0073     2.1492     0.5798 C.ar         1    LIG   0.0000
   9 C9           5.3711     3.2372     0.1455 C.3          1    LIG   0.0000
  10 C10          6.6582     2.8195     0.8260 C.3          1    LIG   0.0000
  11 C11          6.5010     1.3136     0.8564 C.2          1    LIG   0.0000
  12 O12          7.3998     0.4933     0.7567 O.2          1    LIG   0.0000
  13 H           -0.6058    -0.1766     1.0017 H            1    LIG   0.0000
  14 H            0.6707    -0.7867     0.1861 H            1    LIG   0.0000
  15 H            0.6707    -0.7843     1.8191 H            1    LIG   0.0000
  16 H            2.5483    -0.9485     1.7100 H            1    LIG   0.0000
  17 H            4.9500    -0.9174     1.6902 H            1    LIG   0.0000
  18 H            2.4921     2.9563     0.2915 H            1    LIG   0.0000
  19 H            5.0707     4.1360     0.4648 H            1    LIG   0.0000
  20 H            5.4793     3.2556    -0.8484 H            1    LIG   0.0000
  21 H            7.4594     3.0934     0.2940 H            1    LIG   0.0000
  22 H            6.7248     3.1995     1.7486 H            1    LIG   0.0000
@<TRIPOS>BOND
   1        1        2 1
   2        2        3 1
   3        3        4 ar
   4        4        5 ar
   5        5        6 ar
   6        6        7 ar
   7        7        8 ar
   8        8        3 ar
   9        7        9 1
  10        9       10 1
  11       10       11 1
  12       11        6 1
  13       11       12 2
  14        1       13 1
  15        1       14 1
  16        1       15 1
  17        4       16 1
  18        5       17 1
  19        8       18 1
  20        9       19 1
  21        9       20 1
  22       10       21 1
  23       10       22 1

@<TRIPOS>MOLECULE

  22   23
SMALL
USER_CHARGES
@<TRIPOS>ATOM
   1 C1           0.3887    -0.2817     1.0019 C.3          1    LIG   0.0000
   2 O2           1.0000     1.0000     1.0000 O.3          1    LIG   0.0000
   3 C3           2.3471     1.0000     1.0000 C.ar         1    LIG   0.0000
   4 C4           3.0418     2.2041     1.0015 C.ar         1    LIG   0.0000
   5 C5           4.4313     2.1829     1.0061 C.ar         1    LIG   0.0000
   6 C6           5.0929     0.9579     1.0091 C.ar         1    LIG   0.0000
   7 C7           4.3972    -0.2326     1.0108 C.ar         1    LIG   0.0000
   8 C8           3.0073    -0.2236     1.0018 C.ar         1    LIG   0.0000
   9 C9           5.3711    -1.3946     1.0378 C.3          1    LIG   0.0000
  10 C10          6.6582    -0.7693     0.5412 C.3          1    LIG   0.0000
  11 C11          6.5010     0.6562     1.0277 C.2          1    LIG   0.0000
  12 O12          7.3998     1.3929     1.4019 O.2          1    LIG   0.0000
  13 H           -0.6058    -0.1766     1.0017 H            1    LIG   0.0000
  14 H            0.6707    -0.7867     0.1861 H            1    LIG   0.0000
  15 H            0.6707    -0.7843     1.8191 H            1    LIG   0.0000
  16 H            2.5483     3.0739     0.9992 H            1    LIG   0.0000
  17 H            4.9500     3.0378     1.0072 H            1    LIG   0.0000
  18 H            2.4921    -1.0807     0.9967 H            1    LIG   0.0000
  19 H            5.0707    -2.1299     0.4303 H            1    LIG   0.0000
  20 H            5.4793    -1.7518     1.9655 H            1    LIG   0.0000
  21 H            7.4594    -1.2086     0.9474 H            1    LIG   0.0000
  22 H            6.7248    -0.8108    -0.4557 H            1    LIG   0.0000
@<TRIPOS>BOND
   1        1        2 1
   2        2        3 1
   3        3        4 ar
   4        4        5 ar
   5        5        6 ar
   6        6        7 ar
   7        7        8 ar
   8        8        3 ar
   9        7        9 1
  10        9       10 1
  11       10       11 1
  12       11        6 1
  13       11       12 2
  14        1       13 1
  15        1       14 1
  16        1       15 1
  17        4       16 1
  18        5       17 1
  19        8       18 1
  20        9       19 1
  21        9       20 1
  22       10       21 1
  23       10       22 1

@<TRIPOS>MOLECULE

  22   23
SMALL
USER_CHARGES
@<TRIPOS>ATOM
   1 C1           0.3887    -0.2817     1.0019 C.3          1    LIG   0.0000
   2 O2           1.0000     1.0000     1.0000 O.3          1    LIG   0.0000
   3 C3           2.3471     1.0000     1.0000 C.ar         1    LIG   0.0000
   4 C4           3.0418     2.1310     1.4132 C.ar         1    LIG   0.0000
   5 C5           4.4313     2.1095     1.4103 C.ar         1    LIG   0.0000
   6 C6           5.0929     0.9574     0.9942 C.ar         1    LIG   0.0000
   7 C7           4.3972    -0.1620     0.5885 C.ar         1    LIG   0.0000
   8 C8           3.0073    -0.1504     0.5832 C.ar         1    LIG   0.0000
   9 C9           5.3711    -1.2631     0.2165 C.3          1    LIG   0.0000
  10 C10          6.6582    -0.5056    -0.0363 C.3          1    LIG   0.0000
  11 C11          6.5010     0.6674     0.9084 C.2          1    LIG   0.0000
  12 O12          7.3998     1.2317     1.5121 O.2          1    LIG   0.0000
  13 H           -0.6058    -0.1766     1.0017 H            1    LIG   0.0000
  14 H            0.6707    -0.7867     0.1861 H            1    LIG   0.0000
  15 H            0.6707    -0.7843     1.8191 H            1    LIG   0.0000
  16 H            2.5483     2.9491     1.7086 H            1    LIG   0.0000
  17 H            4.9500     2.9125     1.7037 H            1    LIG   0.0000
  18 H            2.4921    -0.9541     0.2853 H            1    LIG   0.0000
  19 H            5.0707    -1.7463    -0.6058 H            1    LIG   0.0000
  20 H            5.4793    -1.9161     0.9661 H            1    LIG   0.0000
  21 H            7.4594    -1.0575     0.1952 H            1    LIG   0.0000
  22 H            6.7248    -0.2037    -0.9873 H            1    LIG   0.0000
@<TRIPOS>BOND
   1        1        2 1
   2        2        3 1
   3        3        4 ar
   4        4        5 ar
   5        5        6 ar
   6        6        7 ar
   7        7        8 ar
   8        8        3 ar
   9        7        9 1
  10        9       10 1
  11       10       11 1
  12       11        6 1
  13       11       12 2
  14        1       13 1
  15        1       14 1
  16        1       15 1
  17        4       16 1
  18        5       17 1
  19        8       18 1
  20        9       19 1
  21        9       20 1
  22       10       21 1
  23       10       22 1

@<TRIPOS>MOLECULE

  22   23
SMALL
USER_CHARGES
@<TRIPOS>ATOM
   1 C1           0.3887    -0.2817     1.0019 C.3          1    LIG   0.0000
   2 O2           1.0000     1.0000     1.0000 O.3          1    LIG   0.0000
   3 C3           2.3471     1.0000     1.0000 C.ar         1    LIG   0.0000
   4 C4           3.0418     2.1320     0.5895 C.ar         1    LIG   0.0000
   5 C5           4.4313     2.1137     0.6011 C.ar         1    LIG   0.0000
   6 C6           5.0929     0.9636     1.0229 C.ar         1    LIG   0.0000
   7 C7           4.3972    -0.1546     1.4317 C.ar         1    LIG   0.0000
   8 C8           3.0073    -0.1492     1.4202 C.ar         1    LIG   0.0000
   9 C9           5.3711    -1.2372     1.8545 C.3          1    LIG   0.0000
  10 C10          6.6582    -0.8195     1.1740 C.3          1    LIG   0.0000
  11 C11          6.5010     0.6864     1.1436 C.2          1    LIG   0.0000
  12 O12          7.3998     1.5067     1.2433 O.2          1    LIG   0.0000
  13 H           -0.6058    -0.1766     1.0017 H            1    LIG   0.0000
  14 H            0.6707    -0.7867     0.1861 H            1    LIG   0.0000
  15 H            0.6707    -0.7843     1.8191 H            1    LIG   0.0000
  16 H            2.5483     2.9485     0.2900 H            1    LIG   0.0000
  17 H            4.9500     2.9174     0.3098 H            1    LIG   0.0000
  18 H            2.4921    -0.9563     1.7085 H            1    LIG   0.0000
  19 H            5.0707    -2.1360     1.5352 H            1    LIG   0.0000
  20 H            5.4793    -1.2556     2.8484 H            1    LIG   0.0000
  21 H            7.4594    -1.0934     1.7060 H            1    LIG   0.0000
  22 H            6.7248    -1.1995     0.2514 H            1    LIG   0.0000
@<TRIPOS>BOND
   1        1        2 1
   2        2        3 1
   3        3        4 ar
   4        4        5 ar
   5        5        6 ar
   6        6        7 ar
   7        7        8 ar
   8        8        3 ar
   9        7        9 1
  10        9       10 1
  11       10       11 1
  12       11        6 1
  13       11       12 2
  14        1       13 1
  15        1       14 1
  16        1       15 1
  17        4       16 1
  18        5       17 1
  19        8       18 1
  20        9       19 1
  21        9       20 1
  22       10       21 1
  23       10       22 1

@<TRIPOS>MOLECULE

  22   23
SMALL
USER_CHARGES
@<TRIPOS>ATOM
   1 C1           0.3887    -0.2817     1.0019 C.3          1    LIG   0.0000
   2 O2           1.0000     1.0000     1.0000 O.3          1    LIG   0.0000
   3 C3           2.3483     1.0000     1.0000 C.ar         1    LIG   0.0000
   4 C4           3.0399    -0.2068     1.0082 C.ar         1    LIG   0.0000
   5 C5           4.4290    -0.1843     1.0118 C.ar         1    LIG   0.0000
   6 C6           5.1147     1.0256     1.0142 C.ar         1    LIG   0.0000
   7 C7           4.4113     2.2128     1.0143 C.ar         1    LIG   0.0000
   8 C8           3.0221     2.2187     0.9982 C.ar         1    LIG   0.0000
   9 C9           5.3887     3.3688     1.0397 C.3          1    LIG   0.0000
  10 C10          6.6767     2.7597     0.5291 C.3          1    LIG   0.0000
  11 C11          6.5290     1.3331     1.0019 C.2          1    LIG   0.0000
  12 O12          7.4374     0.5961     1.3386 O.2          1    LIG   0.0000
  13 H           -0.6058    -0.1766     1.0017 H            1    LIG   0.0000
  14 H            0.6707    -0.7867     0.1861 H            1    LIG   0.0000
  15 H            0.6707    -0.7843     1.8191 H            1    LIG   0.0000
  16 H            2.5455    -1.0761     1.0113 H            1    LIG   0.0000
  17 H            4.9395    -1.0442     1.0128 H            1    LIG   0.0000
  18 H            2.5161     3.0812     0.9856 H            1    LIG   0.0000
  19 H            5.5035     3.7186     1.9694 H            1    LIG   0.0000
  20 H            5.0819     4.1085     0.4407 H            1    LIG   0.0000
  21 H            6.7376     2.8116    -0.4677 H            1    LIG   0.0000
  22 H            7.4774     3.2000     0.9353 H            1    LIG   0.0000
@<TRIPOS>BOND
   1        1        2 1
   2        2        3 1
   3        3        4 ar
   4        4        5 ar
   5        5        6 ar
   6        6        7 ar
   7        7        8 ar
   8        8        3 ar
   9        7        9 1
  10        9       10 1
  11       10       11 1
  12       11        6 1
  13       11       12 2
  14        1       13 1
  15        1       14 1
  16        1       15 1
  17        4       16 1
  18        5       17 1
  19        8       18 1
  20        9       19 1
  21        9       20 1
  22       10       21 1
  23       10       22 1

@<TRIPOS>MOLECULE

  22   23
SMALL
USER_CHARGES
@<TRIPOS>ATOM
   1 C1           0.3887    -0.2817     1.0019 C.3          1    LIG   0.0000
   2 O2           1.0000     1.0000     1.0000 O.3          1    LIG   0.0000
   3 C3           2.3483     1.0000     1.0000 C.ar         1    LIG   0.0000
   4 C4           3.0399    -0.1368     0.5949 C.ar         1    LIG   0.0000
   5 C5           4.4290    -0.1170     0.6061 C.ar         1    LIG   0.0000
   6 C6           5.1147     1.0192     1.0221 C.ar         1    LIG   0.0000
   7 C7           4.4113     2.1347     1.4283 C.ar         1    LIG   0.0000
   8 C8           3.0221     2.1459     1.4152 C.ar         1    LIG   0.0000
   9 C9           5.3887     3.2124     1.8475 C.3          1    LIG   0.0000
  10 C10          6.6767     2.8146     1.1593 C.3          1    LIG   0.0000
  11 C11          6.5290     1.3124     1.1157 C.2          1    LIG   0.0000
  12 O12          7.4374     0.5046     1.1800 O.2          1    LIG   0.0000
  13 H           -0.6058    -0.1766     1.0017 H            1    LIG   0.0000
  14 H            0.6707    -0.7867     0.1861 H            1    LIG   0.0000
  15 H            0.6707    -0.7843     1.8191 H            1    LIG   0.0000
  16 H            2.5455    -0.9547     0.3006 H            1    LIG   0.0000
  17 H            4.9395    -0.9253     0.3128 H            1    LIG   0.0000
  18 H            2.5161     2.9606     1.6983 H            1    LIG   0.0000
  19 H            5.5035     3.2231     2.8408 H            1    LIG   0.0000
  20 H            5.0819     4.1124     1.5377 H            1    LIG   0.0000
  21 H            6.7376     3.2044     0.2404 H            1    LIG   0.0000
  22 H            7.4774     3.0895     1.6917 H            1    LIG   0.0000
@<TRIPOS>BOND
   1        1        2 1
   2        2        3 1
   3        3        4 ar
   4        4        5 ar
   5        5        6 ar
   6        6        7 ar
   7        7        8 ar
   8        8        3 ar
   9        7        9 1
  10        9       10 1
  11       10       11 1
  12       11        6 1
  13       11       12 2
  14        1       13 1
  15        1       14 1
  16        1       15 1
  17        4       16 1
  18        5       17 1
  19        8       18 1
  20        9       19 1
  21        9       20 1
  22       10       21 1
  23       10       22 1

@<TRIPOS>MOLECULE

  22   23
SMALL
USER_CHARGES
@<TRIPOS>ATOM
   1 C1           0.3887    -0.2817     1.0019 C.3          1    LIG   0.0000
   2 O2           1.0000     1.0000     1.0000 O.3          1    LIG   0.0000
   3 C3           2.3483     1.0000     1.0000 C.ar         1    LIG   0.0000
   4 C4           3.0399    -0.1313     1.4204 C.ar         1    LIG   0.0000
   5 C5           4.4290    -0.1089     1.4162 C.ar         1    LIG   0.0000
   6 C6           5.1147     1.0289     1.0046 C.ar         1    LIG   0.0000
   7 C7           4.4113     2.1445     0.5987 C.ar         1    LIG   0.0000
   8 C8           3.0221     2.1446     0.5815 C.ar         1    LIG   0.0000
   9 C9           5.3887     3.2395     0.2271 C.3          1    LIG   0.0000
  10 C10          6.6767     2.4925    -0.0444 C.3          1    LIG   0.0000
  11 C11          6.5290     1.3137     0.8879 C.2          1    LIG   0.0000
  12 O12          7.4374     0.7362     1.4563 O.2          1    LIG   0.0000
  13 H           -0.6058    -0.1766     1.0017 H            1    LIG   0.0000
  14 H            0.6707    -0.7867     0.1861 H            1    LIG   0.0000
  15 H            0.6707    -0.7843     1.8191 H            1    LIG   0.0000
  16 H            2.5455    -0.9470     1.7207 H            1    LIG   0.0000
  17 H            4.9395    -0.9166     1.7112 H            1    LIG   0.0000
  18 H            2.5161     2.9507     0.2747 H            1    LIG   0.0000
  19 H            5.5035     3.8862     0.9811 H            1    LIG   0.0000
  20 H            5.0819     3.7298    -0.5887 H            1    LIG   0.0000
  21 H            6.7376     2.2004    -0.9988 H            1    LIG   0.0000
  22 H            7.4774     3.0452     0.1868 H            1    LIG   0.0000
@<TRIPOS>BOND
   1        1        2 1
   2        2        3 1
   3        3        4 ar
   4        4        5 ar
   5        5        6 ar
   6        6        7 ar
   7        7        8 ar
   8        8        3 ar
   9        7        9 1
  10        9       10 1
  11       10       11 1
  12       11        6 1
  13       11       12 2
  14        1       13 1
  15        1       14 1
  16        1       15 1
  17        4       16 1
  18        5       17 1
  19        8       18 1
  20        9       19 1
  21        9       20 1
  22       10       21 1
  23       10       22 1

@<TRIPOS>MOLECULE

  22   23
SMALL
USER_CHARGES
@<TRIPOS>ATOM
   1 C1           0.3887    -0.2817     1.0019 C.3          1    LIG   0.0000
   2 O2           1.0000     1.0000     1.0000 O.3          1    LIG   0.0000
   3 C3           2.3483     1.0000     1.0000 C.ar         1    LIG   0.0000
   4 C4           3.0399     2.2068     0.9918 C.ar         1    LIG   0.0000
   5 C5           4.4290     2.1843     0.9882 C.ar         1    LIG   0.0000
   6 C6           5.1147     0.9744     0.9858 C.ar         1    LIG   0.0000
   7 C7           4.4113    -0.2128     0.9857 C.ar         1    LIG   0.0000
   8 C8           3.0221    -0.2187     1.0018 C.ar         1    LIG   0.0000
   9 C9           5.3887    -1.3688     0.9603 C.3          1    LIG   0.0000
  10 C10          6.6767    -0.7597     1.4709 C.3          1    LIG   0.0000
  11 C11          6.5290     0.6669     0.9981 C.2          1    LIG   0.0000
  12 O12          7.4374     1.4039     0.6614 O.2          1    LIG   0.0000
  13 H           -0.6058    -0.1766     1.0017 H            1    LIG   0.0000
  14 H            0.6707    -0.7867     0.1861 H            1    LIG   0.0000
  15 H            0.6707    -0.7843     1.8191 H            1    LIG   0.0000
  16 H            2.5455     3.0761     0.9887 H            1    LIG   0.0000
  17 H            4.9395     3.0442     0.9872 H            1    LIG   0.0000
  18 H            2.5161    -1.0812     1.0144 H            1    LIG   0.0000
  19 H            5.5035    -1.7186     0.0306 H            1    LIG   0.0000
  20 H            5.0819    -2.1085     1.5593 H            1    LIG   0.0000
  21 H            6.7376    -0.8116     2.4677 H            1    LIG   0.0000
  22 H            7.4774    -1.2000     1.0647 H            1    LIG   0.0000
@<TRIPOS>BOND
   1        1        2 1
   2        2        3 1
   3        3        4 ar
   4        4        5 ar
   5        5        6 ar
   6        6        7 ar
   7        7        8 ar
   8        8        3 ar
   9        7        9 1
  10        9       10 1
  11       10       11 1
  12       11        6 1
  13       11       12 2
  14        1       13 1
  15        1       14 1
  16        1       15 1
  17        4       16 1
  18        5       17 1
  19        8       18 1
  20        9       19 1
  21        9       20 1
  22       10       21 1
  23       10       22 1

@<TRIPOS>MOLECULE

  22   23
SMALL
USER_CHARGES
@<TRIPOS>ATOM
   1 C1           0.3887    -0.2817     1.0019 C.3          1    LIG   0.0000
   2 O2           1.0000     1.0000     1.0000 O.3          1    LIG   0.0000
   3 C3           2.3483     1.0000     1.0000 C.ar         1    LIG   0.0000
   4 C4           3.0399     2.1368     1.4051 C.ar         1    LIG   0.0000
   5 C5           4.4290     2.1170     1.3939 C.ar         1    LIG   0.0000
   6 C6           5.1147     0.9808     0.9779 C.ar         1    LIG   0.0000
   7 C7           4.4113    -0.1347     0.5717 C.ar         1    LIG   0.0000
   8 C8           3.0221    -0.1459     0.5848 C.ar         1    LIG   0.0000
   9 C9           5.3887    -1.2124     0.1525 C.3          1    LIG   0.0000
  10 C10          6.6767    -0.8146     0.8407 C.3          1    LIG   0.0000
  11 C11          6.5290     0.6876     0.8843 C.2          1    LIG   0.0000
  12 O12          7.4374     1.4954     0.8200 O.2          1    LIG   0.0000
  13 H           -0.6058    -0.1766     1.0017 H            1    LIG   0.0000
  14 H            0.6707    -0.7867     0.1861 H            1    LIG   0.0000
  15 H            0.6707    -0.7843     1.8191 H            1    LIG   0.0000
  16 H            2.5455     2.9547     1.6994 H            1    LIG   0.0000
  17 H            4.9395     2.9253     1.6872 H            1    LIG   0.0000
  18 H            2.5161    -0.9606     0.3017 H            1    LIG   0.0000
  19 H            5.5035    -1.2231    -0.8408 H            1    LIG   0.0000
  20 H            5.0819    -2.1124     0.4623 H            1    LIG   0.0000
  21 H            6.7376    -1.2044     1.7596 H            1    LIG   0.0000
  22 H            7.4774    -1.0895     0.3083 H            1    LIG   0.0000
@<TRIPOS>BOND
   1        1        2 1
   2        2        3 1
   3        3        4 ar
   4        4        5 ar
   5        5        6 ar
   6        6        7 ar
   7        7        8 ar
   8        8        3 ar
   9        7        9 1
  10        9       10 1
  11       10       11 1
  12       11        6 1
  13       11       12 2
  14        1       13 1
  15        1       14 1
  16        1       15 1
  17        4       16 1
  18        5       17 1
  19        8       18 1
  20        9       19 1
  21        9       20 1
  22       10       21 1
  23       10       22 1

@<TRIPOS>MOLECULE

  22   23
SMALL
USER_CHARGES
@<TRIPOS>ATOM
   1 C1           0.3887    -0.2817     1.0019 C.3          1    LIG   0.0000
   2 O2           1.0000     1.0000     1.0000 O.3          1    LIG   0.0000
   3 C3           2.3483     1.0000     1.0000 C.ar         1    LIG   0.0000
   4 C4           3.0399     2.1313     0.5796 C.ar         1    LIG   0.0000
   5 C5           4.4290     2.1089     0.5838 C.ar         1    LIG   0.0000
   6 C6           5.1147     0.9711     0.9954 C.ar         1    LIG   0.0000
   7 C7           4.4113    -0.1445     1.4013 C.ar         1    LIG   0.0000
   8 C8           3.0221    -0.1446     1.4185 C.ar         1    LIG   0.0000
   9 C9           5.3887    -1.2395     1.7729 C.3          1    LIG   0.0000
  10 C10          6.6767    -0.4925     2.0444 C.3          1    LIG   0.0000
  11 C11          6.5290     0.6863     1.1121 C.2          1    LIG   0.0000
  12 O12          7.4374     1.2638     0.5437 O.2          1    LIG   0.0000
  13 H           -0.6058    -0.1766     1.0017 H            1    LIG   0.0000
  14 H            0.6707    -0.7867     0.1861 H            1    LIG   0.0000
  15 H            0.6707    -0.7843     1.8191 H            1    LIG   0.0000
  16 H            2.5455     2.9470     0.2793 H            1    LIG   0.0000
  17 H            4.9395     2.9166     0.2888 H            1    LIG   0.0000
  18 H            2.5161    -0.9507     1.7253 H            1    LIG   0.0000
  19 H            5.5035    -1.8862     1.0189 H            1    LIG   0.0000
  20 H            5.0819    -1.7298     2.5887 H            1    LIG   0.0000
  21 H            6.7376    -0.2004     2.9988 H            1    LIG   0.0000
  22 H            7.4774    -1.0452     1.8132 H            1    LIG   0.0000
@<TRIPOS>BOND
   1        1        2 1
   2        2        3 1
   3        3        4 ar
   4        4        5 ar
   5        5        6 ar
   6        6        7 ar
   7        7        8 ar
   8        8        3 ar
   9        7        9 1
  10        9       10 1
  11       10       11 1
  12       11        6 1
  13       11       12 2
  14        1       13 1
  15        1       14 1
  16        1       15 1
  17        4       16 1
  18        5       17 1
  19        8       18 1
  20        9       19 1
  21        9       20 1
  22       10       21 1
  23       10       22 1

