@<TRIPOS>MOLECULE
*****
 22 23 0 0 0
SMALL
USER_CHARGES

@<TRIPOS>ATOM
      1 C1          0.3887   -0.2817    1.0019 C.3     1  LIG1        0.0000
      2 O2          1.0000    1.0000    1.0000 O.2     1  LIG1        0.0000
      3 C3          2.3483    1.0000    1.0000 C.3     1  LIG1        0.0000
      4 C4          3.0399   -0.1368    0.5949 C.3     1  LIG1        0.0000
      5 C5          4.4290   -0.1170    0.6061 C.3     1  LIG1        0.0000
      6 C6          5.1147    1.0192    1.0221 C.3     1  LIG1        0.0000
      7 C7          4.4113    2.1347    1.4283 C.3     1  LIG1        0.0000
      8 C8          3.0221    2.1459    1.4152 C.3     1  LIG1        0.0000
      9 C9          5.3887    3.2124    1.8475 C.3     1  LIG1        0.0000
     10 C10         6.6767    2.8146    1.1593 C.3     1  LIG1        0.0000
     11 C11         6.5290    1.3124    1.1157 C.2     1  LIG1        0.0000
     12 O12         7.4374    0.5046    1.1800 O.2     1  LIG1        0.0000
     13 H          -0.6058   -0.1766    1.0017 H       1  LIG1        0.0000
     14 H           0.6707   -0.7867    0.1861 H       1  LIG1        0.0000
     15 H           0.6707   -0.7843    1.8191 H       1  LIG1        0.0000
     16 H           2.5455   -0.9547    0.3006 H       1  LIG1        0.0000
     17 H           4.9395   -0.9253    0.3128 H       1  LIG1        0.0000
     18 H           2.5161    2.9606    1.6983 H       1  LIG1        0.0000
     19 H           5.5035    3.2231    2.8408 H       1  LIG1        0.0000
     20 H           5.0819    4.1124    1.5377 H       1  LIG1        0.0000
     21 H           6.7376    3.2044    0.2404 H       1  LIG1        0.0000
     22 H           7.4774    3.0895    1.6917 H       1  LIG1        0.0000
@<TRIPOS>BOND
     1     1     2    1
     2     2     3    1
     3     3     4   ar
     4     4     5   ar
     5     5     6   ar
     6     6     7   ar
     7     7     8   ar
     8     8     3   ar
     9     7     9    1
    10     9    10    1
    11    10    11    1
    12    11     6    1
    13    11    12    2
    14     1    13    1
    15     1    14    1
    16     1    15    1
    17     4    16    1
    18     5    17    1
    19     8    18    1
    20     9    19    1
    21     9    20    1
    22    10    21    1
    23    10    22    1
