@<TRIPOS>MOLECULE
*****
 22 23 0 0 0
SMALL
USER_CHARGES

@<TRIPOS>ATOM
      1 C1          0.3887   -0.2817    1.0019 C.3     1  LIG1        0.0000
      2 O2          1.0000    1.0000    1.0000 O.2     1  LIG1        0.0000
      3 C3          2.3471    1.0000    1.0000 C.3     1  LIG1        0.0000
      4 C4          3.0418    2.2041    1.0015 C.3     1  LIG1        0.0000
      5 C5          4.4313    2.1829    1.0061 C.3     1  LIG1        0.0000
      6 C6          5.0929    0.9579    1.0091 C.3     1  LIG1        0.0000
      7 C7          4.3972   -0.2326    1.0108 C.3     1  LIG1        0.0000
      8 C8          3.0073   -0.2236    1.0018 C.3     1  LIG1        0.0000
      9 C9          5.3711   -1.3946    1.0378 C.3     1  LIG1        0.0000
     10 C10         6.6582   -0.7693    0.5412 C.3     1  LIG1        0.0000
     11 C11         6.5010    0.6562    1.0277 C.2     1  LIG1        0.0000
     12 O12         7.3998    1.3929    1.4019 O.2     1  LIG1        0.0000
     13 H          -0.6058   -0.1766    1.0017 H       1  LIG1        0.0000
     14 H           0.6707   -0.7867    0.1861 H       1  LIG1        0.0000
     15 H           0.6707   -0.7843    1.8191 H       1  LIG1        0.0000
     16 H           2.5483    3.0739    0.9992 H       1  LIG1        0.0000
     17 H           4.9500    3.0378    1.0072 H       1  LIG1        0.0000
     18 H           2.4921   -1.0807    0.9967 H       1  LIG1        0.0000
     19 H           5.0707   -2.1299    0.4303 H       1  LIG1        0.0000
     20 H           5.4793   -1.7518    1.9655 H       1  LIG1        0.0000
     21 H           7.4594   -1.2086    0.9474 H       1  LIG1        0.0000
     22 H           6.7248   -0.8108   -0.4557 H       1  LIG1        0.0000
@<TRIPOS>BOND
     1     1     2    1
     2     2     3    1
     3     3     4   ar
     4     4     5   ar
     5     5     6   ar
     6     6     7   ar
     7     7     8   ar
     8     8     3   ar
     9     7     9    1
    10     9    10    1
    11    10    11    1
    12    11     6    1
    13    11    12    2
    14     1    13    1
    15     1    14    1
    16     1    15    1
    17     4    16    1
    18     5    17    1
    19     8    18    1
    20     9    19    1
    21     9    20    1
    22    10    21    1
    23    10    22    1
