@<TRIPOS>MOLECULE
*****
 22 23 0 0 0
SMALL
USER_CHARGES

@<TRIPOS>ATOM
      1 C1          0.3887   -0.2817    1.0019 C.3     1  LIG1        0.0000
      2 O2          1.0000    1.0000    1.0000 O.2     1  LIG1        0.0000
      3 C3          2.3483    1.0000    1.0000 C.3     1  LIG1        0.0000
      4 C4          3.0399   -0.2068    1.0082 C.3     1  LIG1        0.0000
      5 C5          4.4290   -0.1843    1.0118 C.3     1  LIG1        0.0000
      6 C6          5.1147    1.0256    1.0142 C.3     1  LIG1        0.0000
      7 C7          4.4113    2.2128    1.0143 C.3     1  LIG1        0.0000
      8 C8          3.0221    2.2187    0.9982 C.3     1  LIG1        0.0000
      9 C9          5.3887    3.3688    1.0397 C.3     1  LIG1        0.0000
     10 C10         6.6767    2.7597    0.5291 C.3     1  LIG1        0.0000
     11 C11         6.5290    1.3331    1.0019 C.2     1  LIG1        0.0000
     12 O12         7.4374    0.5961    1.3386 O.2     1  LIG1        0.0000
     13 H          -0.6058   -0.1766    1.0017 H       1  LIG1        0.0000
     14 H           0.6707   -0.7867    0.1861 H       1  LIG1        0.0000
     15 H           0.6707   -0.7843    1.8191 H       1  LIG1        0.0000
     16 H           2.5455   -1.0761    1.0113 H       1  LIG1        0.0000
     17 H           4.9395   -1.0442    1.0128 H       1  LIG1        0.0000
     18 H           2.5161    3.0812    0.9856 H       1  LIG1        0.0000
     19 H           5.5035    3.7186    1.9694 H       1  LIG1        0.0000
     20 H           5.0819    4.1085    0.4407 H       1  LIG1        0.0000
     21 H           6.7376    2.8116   -0.4677 H       1  LIG1        0.0000
     22 H           7.4774    3.2000    0.9353 H       1  LIG1        0.0000
@<TRIPOS>BOND
     1     1     2    1
     2     2     3    1
     3     3     4   ar
     4     4     5   ar
     5     5     6   ar
     6     6     7   ar
     7     7     8   ar
     8     8     3   ar
     9     7     9    1
    10     9    10    1
    11    10    11    1
    12    11     6    1
    13    11    12    2
    14     1    13    1
    15     1    14    1
    16     1    15    1
    17     4    16    1
    18     5    17    1
    19     8    18    1
    20     9    19    1
    21     9    20    1
    22    10    21    1
    23    10    22    1
