@<TRIPOS>MOLECULE
*****
 22 23 0 0 0
SMALL
USER_CHARGES

@<TRIPOS>ATOM
      1 C1          0.3887   -0.2817    1.0019 C.3     1  LIG1        0.0000
      2 O2          1.0000    1.0000    1.0000 O.2     1  LIG1        0.0000
      3 C3          2.3471    1.0000    1.0000 C.3     1  LIG1        0.0000
      4 C4          3.0418    2.1310    1.4132 C.3     1  LIG1        0.0000
      5 C5          4.4313    2.1095    1.4103 C.3     1  LIG1        0.0000
      6 C6          5.0929    0.9574    0.9942 C.3     1  LIG1        0.0000
      7 C7          4.3972   -0.1620    0.5885 C.3     1  LIG1        0.0000
      8 C8          3.0073   -0.1504    0.5832 C.3     1  LIG1        0.0000
      9 C9          5.3711   -1.2631    0.2165 C.3     1  LIG1        0.0000
     10 C10         6.6582   -0.5056   -0.0363 C.3     1  LIG1        0.0000
     11 C11         6.5010    0.6674    0.9084 C.2     1  LIG1        0.0000
     12 O12         7.3998    1.2317    1.5121 O.2     1  LIG1        0.0000
     13 H          -0.6058   -0.1766    1.0017 H       1  LIG1        0.0000
     14 H           0.6707   -0.7867    0.1861 H       1  LIG1        0.0000
     15 H           0.6707   -0.7843    1.8191 H       1  LIG1        0.0000
     16 H           2.5483    2.9491    1.7086 H       1  LIG1        0.0000
     17 H           4.9500    2.9125    1.7037 H       1  LIG1        0.0000
     18 H           2.4921   -0.9541    0.2853 H       1  LIG1        0.0000
     19 H           5.0707   -1.7463   -0.6058 H       1  LIG1        0.0000
     20 H           5.4793   -1.9161    0.9661 H       1  LIG1        0.0000
     21 H           7.4594   -1.0575    0.1952 H       1  LIG1        0.0000
     22 H           6.7248   -0.2037   -0.9873 H       1  LIG1        0.0000
@<TRIPOS>BOND
     1     1     2    1
     2     2     3    1
     3     3     4   ar
     4     4     5   ar
     5     5     6   ar
     6     6     7   ar
     7     7     8   ar
     8     8     3   ar
     9     7     9    1
    10     9    10    1
    11    10    11    1
    12    11     6    1
    13    11    12    2
    14     1    13    1
    15     1    14    1
    16     1    15    1
    17     4    16    1
    18     5    17    1
    19     8    18    1
    20     9    19    1
    21     9    20    1
    22    10    21    1
    23    10    22    1
