@<TRIPOS>MOLECULE

  46   49
SMALL
USER_CHARGES
@<TRIPOS>ATOM
   1 C1          -2.3553     1.2187     0.0328 C.3          1    LIG   0.0000
   2 O2          -1.1948     2.0371     0.0243 O.3          1    LIG   0.0000
   3 C3          -0.0178     1.3763     0.0090 C.ar         1    LIG   0.0000
   4 C4          -0.0163    -0.0147     0.0026 C.ar         1    LIG   0.0000
   5 C5           1.1996    -0.6910    -0.0125 C.ar         1    LIG   0.0000
   6 C6           2.3933     0.0238    -0.0216 C.ar         1    LIG   0.0000
   7 C7           3.7222    -0.7133    -0.0371 C.3          1    LIG   0.0000
   8 N8           3.5065    -2.1671    -0.0426 N.pl3        1    LIG   0.0000
   9 C9           4.4944    -3.0617     0.3869 C.ar         1    LIG   0.0000
  10 C10          4.5438    -4.3844    -0.0498 C.ar         1    LIG   0.0000
  11 C11          3.5216    -4.9394    -1.0290 C.3          1    LIG   0.0000
  12 C12          5.5390    -5.2465     0.4012 C.ar         1    LIG   0.0000
  13 C13          6.4914    -4.7741     1.2980 C.ar         1    LIG   0.0000
  14 C14          7.5806    -5.7125     1.7933 C.3          1    LIG   0.0000
  15 C15          6.4284    -3.4495     1.7251 C.ar         1    LIG   0.0000
  16 C16          5.4383    -2.5748     1.2827 C.ar         1    LIG   0.0000
  17 C17          5.3736    -1.1909     1.7183 C.2          1    LIG   0.0000
  18 C18          6.0115    -0.5227     2.7227 C.2          1    LIG   0.0000
  19 C19          5.5280     0.8037     2.6537 C.2          1    LIG   0.0000
  20 C20          5.9419     1.9407     3.5744 C.3          1    LIG   0.0000
  21 N21          4.6650     0.8808     1.6683 N.2          1    LIG   0.0000
  22 N22          4.5574    -0.3004     1.1028 N.pl3        1    LIG   0.0000
  23 C23          2.3968     1.4145    -0.0145 C.ar         1    LIG   0.0000
  24 C24          1.1790     2.0860     0.0007 C.ar         1    LIG   0.0000
  25 O25          1.1526     3.4354     0.0095 O.3          1    LIG   0.0000
  26 H            4.2031    -0.4679    -0.8789 H            1    LIG   0.0000
  27 H           -3.1710     1.7971     0.0440 H            1    LIG   0.0000
  28 H           -2.3646     0.6451    -0.7863 H            1    LIG   0.0000
  29 H           -2.3475     0.6377     0.8466 H            1    LIG   0.0000
  30 H           -0.8780    -0.5221     0.0089 H            1    LIG   0.0000
  31 H            1.2156    -1.6909    -0.0168 H            1    LIG   0.0000
  32 H            2.6301    -2.5274    -0.3620 H            1    LIG   0.0000
  33 H            3.7272    -5.8999    -1.2166 H            1    LIG   0.0000
  34 H            2.6064    -4.8656    -0.6329 H            1    LIG   0.0000
  35 H            3.5591    -4.4178    -1.8813 H            1    LIG   0.0000
  36 H            5.5689    -6.1945     0.0842 H            1    LIG   0.0000
  37 H            7.4589    -6.6136     1.3770 H            1    LIG   0.0000
  38 H            8.4763    -5.3467     1.5402 H            1    LIG   0.0000
  39 H            7.5230    -5.7944     2.7883 H            1    LIG   0.0000
  40 H            7.1160    -3.1158     2.3699 H            1    LIG   0.0000
  41 H            6.6786    -0.8926     3.3694 H            1    LIG   0.0000
  42 H            6.6131     1.6063     4.2360 H            1    LIG   0.0000
  43 H            6.3462     2.6778     3.0329 H            1    LIG   0.0000
  44 H            5.1386     2.2857     4.0598 H            1    LIG   0.0000
  45 H            3.2584     1.9220    -0.0202 H            1    LIG   0.0000
  46 H            2.0086     3.9522     0.0036 H            1    LIG   0.0000
@<TRIPOS>BOND
   1        1        2 1
   2        2        3 1
   3        3        4 ar
   4        4        5 ar
   5        5        6 ar
   6        6        7 1
   7        7        8 1
   8        8        9 1
   9        9       10 ar
  10       10       11 1
  11       10       12 ar
  12       12       13 ar
  13       13       14 1
  14       13       15 ar
  15       15       16 ar
  16       16        9 ar
  17       16       17 1
  18       17       18 2
  19       18       19 1
  20       19       20 1
  21       19       21 2
  22       21       22 1
  23       22       17 1
  24       22        7 1
  25        6       23 ar
  26       23       24 ar
  27       24        3 ar
  28       24       25 1
  29        7       26 1
  30        1       27 1
  31        1       28 1
  32        1       29 1
  33        4       30 1
  34        5       31 1
  35        8       32 1
  36       11       33 1
  37       11       34 1
  38       11       35 1
  39       12       36 1
  40       14       37 1
  41       14       38 1
  42       14       39 1
  43       15       40 1
  44       18       41 1
  45       20       42 1
  46       20       43 1
  47       20       44 1
  48       23       45 1
  49       25       46 1

@<TRIPOS>MOLECULE

  46   49
SMALL
USER_CHARGES
@<TRIPOS>ATOM
   1 C1          -2.3553     1.2187     0.0328 C.3          1    LIG   0.0000
   2 O2          -1.1948     2.0371     0.0243 O.3          1    LIG   0.0000
   3 C3          -0.0178     1.3763     0.0090 C.ar         1    LIG   0.0000
   4 C4          -0.0163    -0.0147     0.0026 C.ar         1    LIG   0.0000
   5 C5           1.1996    -0.6910    -0.0125 C.ar         1    LIG   0.0000
   6 C6           2.3933     0.0238    -0.0216 C.ar         1    LIG   0.0000
   7 C7           3.7222    -0.7133    -0.0371 C.3          1    LIG   0.0000
   8 N8           4.0701    -1.1797     1.3125 N.pl3        1    LIG   0.0000
   9 C9           5.3904    -1.4735     1.6747 C.ar         1    LIG   0.0000
  10 C10          5.7017    -2.3550     2.7085 C.ar         1    LIG   0.0000
  11 C11          4.6180    -3.0586     3.5099 C.3          1    LIG   0.0000
  12 C12          7.0263    -2.6209     3.0430 C.ar         1    LIG   0.0000
  13 C13          8.0449    -1.9952     2.3319 C.ar         1    LIG   0.0000
  14 C14          9.4935    -2.2828     2.6940 C.3          1    LIG   0.0000
  15 C15          7.7173    -1.1167     1.3015 C.ar         1    LIG   0.0000
  16 C16          6.3964    -0.8405     0.9552 C.ar         1    LIG   0.0000
  17 C17          6.0502     0.0677    -0.1239 C.2          1    LIG   0.0000
  18 C18          6.7954     0.9655    -0.8314 C.2          1    LIG   0.0000
  19 C19          5.8952     1.5586    -1.7457 C.2          1    LIG   0.0000
  20 C20          6.2516     2.6328    -2.7609 C.3          1    LIG   0.0000
  21 N21          4.7088     1.0281    -1.5644 N.2          1    LIG   0.0000
  22 N22          4.7822     0.1408    -0.5981 N.pl3        1    LIG   0.0000
  23 C23          2.3968     1.4145    -0.0145 C.ar         1    LIG   0.0000
  24 C24          1.1790     2.0860     0.0007 C.ar         1    LIG   0.0000
  25 O25          1.1526     3.4354     0.0095 O.3          1    LIG   0.0000
  26 H            3.6252    -1.5150    -0.6269 H            1    LIG   0.0000
  27 H           -3.1710     1.7971     0.0440 H            1    LIG   0.0000
  28 H           -2.3646     0.6451    -0.7863 H            1    LIG   0.0000
  29 H           -2.3475     0.6377     0.8466 H            1    LIG   0.0000
  30 H           -0.8780    -0.5221     0.0089 H            1    LIG   0.0000
  31 H            1.2156    -1.6909    -0.0168 H            1    LIG   0.0000
  32 H            3.3438    -1.2903     1.9909 H            1    LIG   0.0000
  33 H            5.0416    -3.6445     4.2008 H            1    LIG   0.0000
  34 H            4.0404    -2.3772     3.9594 H            1    LIG   0.0000
  35 H            4.0593    -3.6169     2.8966 H            1    LIG   0.0000
  36 H            7.2431    -3.2543     3.7859 H            1    LIG   0.0000
  37 H            9.5246    -2.9332     3.4530 H            1    LIG   0.0000
  38 H            9.9641    -2.6720     1.9020 H            1    LIG   0.0000
  39 H            9.9445    -1.4324     2.9650 H            1    LIG   0.0000
  40 H            8.4541    -0.6700     0.7940 H            1    LIG   0.0000
  41 H            7.7702     1.1620    -0.7256 H            1    LIG   0.0000
  42 H            7.2240     2.8537    -2.6850 H            1    LIG   0.0000
  43 H            6.0569     2.2979    -3.6828 H            1    LIG   0.0000
  44 H            5.7085     3.4533    -2.5827 H            1    LIG   0.0000
  45 H            3.2584     1.9220    -0.0202 H            1    LIG   0.0000
  46 H            2.0086     3.9522     0.0036 H            1    LIG   0.0000
@<TRIPOS>BOND
   1        1        2 1
   2        2        3 1
   3        3        4 ar
   4        4        5 ar
   5        5        6 ar
   6        6        7 1
   7        7        8 1
   8        8        9 1
   9        9       10 ar
  10       10       11 1
  11       10       12 ar
  12       12       13 ar
  13       13       14 1
  14       13       15 ar
  15       15       16 ar
  16       16        9 ar
  17       16       17 1
  18       17       18 2
  19       18       19 1
  20       19       20 1
  21       19       21 2
  22       21       22 1
  23       22       17 1
  24       22        7 1
  25        6       23 ar
  26       23       24 ar
  27       24        3 ar
  28       24       25 1
  29        7       26 1
  30        1       27 1
  31        1       28 1
  32        1       29 1
  33        4       30 1
  34        5       31 1
  35        8       32 1
  36       11       33 1
  37       11       34 1
  38       11       35 1
  39       12       36 1
  40       14       37 1
  41       14       38 1
  42       14       39 1
  43       15       40 1
  44       18       41 1
  45       20       42 1
  46       20       43 1
  47       20       44 1
  48       23       45 1
  49       25       46 1

@<TRIPOS>MOLECULE

  46   49
SMALL
USER_CHARGES
@<TRIPOS>ATOM
   1 C1          -2.3553     1.2187     0.0328 C.3          1    LIG   0.0000
   2 O2          -1.1948     2.0371     0.0243 O.3          1    LIG   0.0000
   3 C3          -0.0178     1.3763     0.0090 C.ar         1    LIG   0.0000
   4 C4          -0.0163    -0.0147     0.0026 C.ar         1    LIG   0.0000
   5 C5           1.1996    -0.6910    -0.0125 C.ar         1    LIG   0.0000
   6 C6           2.3933     0.0238    -0.0216 C.ar         1    LIG   0.0000
   7 C7           3.7222    -0.7133    -0.0371 C.3          1    LIG   0.0000
   8 N8           4.8413     0.2394    -0.0422 N.pl3        1    LIG   0.0000
   9 C9           6.1153    -0.1206    -0.4983 C.ar         1    LIG   0.0000
  10 C10          7.2713     0.5336    -0.0756 C.ar         1    LIG   0.0000
  11 C11          7.2186     1.6848     0.9161 C.3          1    LIG   0.0000
  12 C12          8.5213     0.1504    -0.5529 C.ar         1    LIG   0.0000
  13 C13          8.6086    -0.8988    -1.4619 C.ar         1    LIG   0.0000
  14 C14          9.9723    -1.3209    -1.9859 C.3          1    LIG   0.0000
  15 C15          7.4440    -1.5424    -1.8746 C.ar         1    LIG   0.0000
  16 C16          6.1860    -1.1702    -1.4059 C.ar         1    LIG   0.0000
  17 C17          4.9700    -1.8438    -1.8265 C.2          1    LIG   0.0000
  18 C18          4.7229    -2.7287    -2.8355 C.2          1    LIG   0.0000
  19 C19          3.3431    -3.0216    -2.7446 C.2          1    LIG   0.0000
  20 C20          2.5812    -3.9656    -3.6613 C.3          1    LIG   0.0000
  21 N21          2.8385    -2.3401    -1.7432 N.2          1    LIG   0.0000
  22 N22          3.7936    -1.6291    -1.1877 N.pl3        1    LIG   0.0000
  23 C23          2.3968     1.4145    -0.0145 C.ar         1    LIG   0.0000
  24 C24          1.1790     2.0860     0.0007 C.ar         1    LIG   0.0000
  25 O25          1.1526     3.4354     0.0095 O.3          1    LIG   0.0000
  26 H            3.7836    -1.2595     0.7983 H            1    LIG   0.0000
  27 H           -3.1710     1.7971     0.0440 H            1    LIG   0.0000
  28 H           -2.3646     0.6451    -0.7863 H            1    LIG   0.0000
  29 H           -2.3475     0.6377     0.8466 H            1    LIG   0.0000
  30 H           -0.8780    -0.5221     0.0089 H            1    LIG   0.0000
  31 H            1.2156    -1.6909    -0.0168 H            1    LIG   0.0000
  32 H            4.6887     1.1704     0.2892 H            1    LIG   0.0000
  33 H            8.1455     2.0172     1.0905 H            1    LIG   0.0000
  34 H            6.6644     2.4260     0.5373 H            1    LIG   0.0000
  35 H            6.8113     1.3683     1.7728 H            1    LIG   0.0000
  36 H            9.3469     0.6238    -0.2459 H            1    LIG   0.0000
  37 H           10.6796    -0.7446    -1.5765 H            1    LIG   0.0000
  38 H           10.1406    -2.2768    -1.7453 H            1    LIG   0.0000
  39 H            9.9935    -1.2187    -2.9804 H            1    LIG   0.0000
  40 H            7.5133    -2.2960    -2.5283 H            1    LIG   0.0000
  41 H            5.3781    -3.0922    -3.4977 H            1    LIG   0.0000
  42 H            3.2083    -4.3513    -4.3381 H            1    LIG   0.0000
  43 H            2.1797    -4.7042    -3.1198 H            1    LIG   0.0000
  44 H            1.8547    -3.4621    -4.1288 H            1    LIG   0.0000
  45 H            3.2584     1.9220    -0.0202 H            1    LIG   0.0000
  46 H            2.0086     3.9522     0.0036 H            1    LIG   0.0000
@<TRIPOS>BOND
   1        1        2 1
   2        2        3 1
   3        3        4 ar
   4        4        5 ar
   5        5        6 ar
   6        6        7 1
   7        7        8 1
   8        8        9 1
   9        9       10 ar
  10       10       11 1
  11       10       12 ar
  12       12       13 ar
  13       13       14 1
  14       13       15 ar
  15       15       16 ar
  16       16        9 ar
  17       16       17 1
  18       17       18 2
  19       18       19 1
  20       19       20 1
  21       19       21 2
  22       21       22 1
  23       22       17 1
  24       22        7 1
  25        6       23 ar
  26       23       24 ar
  27       24        3 ar
  28       24       25 1
  29        7       26 1
  30        1       27 1
  31        1       28 1
  32        1       29 1
  33        4       30 1
  34        5       31 1
  35        8       32 1
  36       11       33 1
  37       11       34 1
  38       11       35 1
  39       12       36 1
  40       14       37 1
  41       14       38 1
  42       14       39 1
  43       15       40 1
  44       18       41 1
  45       20       42 1
  46       20       43 1
  47       20       44 1
  48       23       45 1
  49       25       46 1

@<TRIPOS>MOLECULE

  46   49
SMALL
USER_CHARGES
@<TRIPOS>ATOM
   1 C1          -2.3553     1.2187     0.0328 C.3          1    LIG   0.0000
   2 O2          -1.1948     2.0371     0.0243 O.3          1    LIG   0.0000
   3 C3          -0.0178     1.3763     0.0090 C.ar         1    LIG   0.0000
   4 C4          -0.0163    -0.0147     0.0026 C.ar         1    LIG   0.0000
   5 C5           1.1996    -0.6910    -0.0125 C.ar         1    LIG   0.0000
   6 C6           2.3933     0.0238    -0.0216 C.ar         1    LIG   0.0000
   7 C7           3.7222    -0.7133    -0.0371 C.3          1    LIG   0.0000
   8 N8           4.0460    -1.1659    -1.3974 N.pl3        1    LIG   0.0000
   9 C9           4.9379    -2.2195    -1.6323 C.ar         1    LIG   0.0000
  10 C10          5.6398    -2.3498    -2.8295 C.ar         1    LIG   0.0000
  11 C11          5.4803    -1.3463    -3.9605 C.3          1    LIG   0.0000
  12 C12          6.5161    -3.4124    -3.0291 C.ar         1    LIG   0.0000
  13 C13          6.6875    -4.3506    -2.0166 C.ar         1    LIG   0.0000
  14 C14          7.6441    -5.5132    -2.2303 C.3          1    LIG   0.0000
  15 C15          5.9787    -4.2064    -0.8260 C.ar         1    LIG   0.0000
  16 C16          5.0980    -3.1484    -0.6115 C.ar         1    LIG   0.0000
  17 C17          4.3636    -2.9890     0.6312 C.2          1    LIG   0.0000
  18 C18          4.1628    -3.8339     1.6838 C.2          1    LIG   0.0000
  19 C19          3.3553    -3.1122     2.5921 C.2          1    LIG   0.0000
  20 C20          2.8551    -3.6321     3.9305 C.3          1    LIG   0.0000
  21 N21          3.1118    -1.9281     2.0818 N.2          1    LIG   0.0000
  22 N22          3.7015    -1.8395     0.9110 N.pl3        1    LIG   0.0000
  23 C23          2.3968     1.4145    -0.0145 C.ar         1    LIG   0.0000
  24 C24          1.1790     2.0860     0.0007 C.ar         1    LIG   0.0000
  25 O25          1.1526     3.4354     0.0095 O.3          1    LIG   0.0000
  26 H            4.4343    -0.0749     0.2551 H            1    LIG   0.0000
  27 H           -3.1710     1.7971     0.0440 H            1    LIG   0.0000
  28 H           -2.3646     0.6451    -0.7863 H            1    LIG   0.0000
  29 H           -2.3475     0.6377     0.8466 H            1    LIG   0.0000
  30 H           -0.8780    -0.5221     0.0089 H            1    LIG   0.0000
  31 H            1.2156    -1.6909    -0.0168 H            1    LIG   0.0000
  32 H            3.6176    -0.7087    -2.1768 H            1    LIG   0.0000
  33 H            6.0638    -1.6131    -4.7275 H            1    LIG   0.0000
  34 H            4.5258    -1.3286    -4.2582 H            1    LIG   0.0000
  35 H            5.7463    -0.4373    -3.6396 H            1    LIG   0.0000
  36 H            7.0167    -3.5004    -3.8903 H            1    LIG   0.0000
  37 H            8.0547    -5.4442    -3.1395 H            1    LIG   0.0000
  38 H            8.3638    -5.4846    -1.5366 H            1    LIG   0.0000
  39 H            7.1430    -6.3753    -2.1554 H            1    LIG   0.0000
  40 H            6.1062    -4.8841    -0.1018 H            1    LIG   0.0000
  41 H            4.5123    -4.7648     1.7898 H            1    LIG   0.0000
  42 H            3.1886    -4.5642     4.0718 H            1    LIG   0.0000
  43 H            3.1925    -3.0425     4.6643 H            1    LIG   0.0000
  44 H            1.8551    -3.6316     3.9356 H            1    LIG   0.0000
  45 H            3.2584     1.9220    -0.0202 H            1    LIG   0.0000
  46 H            2.0086     3.9522     0.0036 H            1    LIG   0.0000
@<TRIPOS>BOND
   1        1        2 1
   2        2        3 1
   3        3        4 ar
   4        4        5 ar
   5        5        6 ar
   6        6        7 1
   7        7        8 1
   8        8        9 1
   9        9       10 ar
  10       10       11 1
  11       10       12 ar
  12       12       13 ar
  13       13       14 1
  14       13       15 ar
  15       15       16 ar
  16       16        9 ar
  17       16       17 1
  18       17       18 2
  19       18       19 1
  20       19       20 1
  21       19       21 2
  22       21       22 1
  23       22       17 1
  24       22        7 1
  25        6       23 ar
  26       23       24 ar
  27       24        3 ar
  28       24       25 1
  29        7       26 1
  30        1       27 1
  31        1       28 1
  32        1       29 1
  33        4       30 1
  34        5       31 1
  35        8       32 1
  36       11       33 1
  37       11       34 1
  38       11       35 1
  39       12       36 1
  40       14       37 1
  41       14       38 1
  42       14       39 1
  43       15       40 1
  44       18       41 1
  45       20       42 1
  46       20       43 1
  47       20       44 1
  48       23       45 1
  49       25       46 1

@<TRIPOS>MOLECULE

  46   49
SMALL
USER_CHARGES
@<TRIPOS>ATOM
   1 C1          -2.3553     1.2187     0.0328 C.3          1    LIG   0.0000
   2 O2          -1.1948     2.0371     0.0243 O.3          1    LIG   0.0000
   3 C3          -0.0178     1.3763     0.0090 C.ar         1    LIG   0.0000
   4 C4          -0.0163    -0.0147     0.0026 C.ar         1    LIG   0.0000
   5 C5           1.1996    -0.6910    -0.0125 C.ar         1    LIG   0.0000
   6 C6           2.3933     0.0238    -0.0216 C.ar         1    LIG   0.0000
   7 C7           3.7222    -0.7133    -0.0371 C.3          1    LIG   0.0000
   8 N8           3.6548    -1.8811    -0.9270 N.pl3        1    LIG   0.0000
   9 C9           4.5364    -2.9611    -0.7958 C.ar         1    LIG   0.0000
  10 C10          4.8427    -3.8074    -1.8601 C.ar         1    LIG   0.0000
  11 C11          4.2355    -3.6057    -3.2394 C.3          1    LIG   0.0000
  12 C12          5.7214    -4.8735    -1.6921 C.ar         1    LIG   0.0000
  13 C13          6.2961    -5.0894    -0.4440 C.ar         1    LIG   0.0000
  14 C14          7.2569    -6.2530    -0.2558 C.3          1    LIG   0.0000
  15 C15          5.9798    -4.2347     0.6097 C.ar         1    LIG   0.0000
  16 C16          5.1021    -3.1637     0.4569 C.ar         1    LIG   0.0000
  17 C17          4.7760    -2.2648     1.5501 C.2          1    LIG   0.0000
  18 C18          5.0016    -2.3471     2.8933 C.2          1    LIG   0.0000
  19 C19          4.4435    -1.1681     3.4379 C.2          1    LIG   0.0000
  20 C20          4.4403    -0.7948     4.9117 C.3          1    LIG   0.0000
  21 N21          3.9301    -0.4607     2.4591 N.2          1    LIG   0.0000
  22 N22          4.1154    -1.1021     1.3274 N.pl3        1    LIG   0.0000
  23 C23          2.3968     1.4145    -0.0145 C.ar         1    LIG   0.0000
  24 C24          1.1790     2.0860     0.0007 C.ar         1    LIG   0.0000
  25 O25          1.1526     3.4354     0.0095 O.3          1    LIG   0.0000
  26 H            4.4180    -0.0905    -0.3948 H            1    LIG   0.0000
  27 H           -3.1710     1.7971     0.0440 H            1    LIG   0.0000
  28 H           -2.3646     0.6451    -0.7863 H            1    LIG   0.0000
  29 H           -2.3475     0.6377     0.8466 H            1    LIG   0.0000
  30 H           -0.8780    -0.5221     0.0089 H            1    LIG   0.0000
  31 H            1.2156    -1.6909    -0.0168 H            1    LIG   0.0000
  32 H            2.9602    -1.9050    -1.6460 H            1    LIG   0.0000
  33 H            4.5776    -4.3109    -3.8605 H            1    LIG   0.0000
  34 H            3.2395    -3.6704    -3.1779 H            1    LIG   0.0000
  35 H            4.4901    -2.7033    -3.5870 H            1    LIG   0.0000
  36 H            5.9370    -5.4772    -2.4596 H            1    LIG   0.0000
  37 H            7.3560    -6.7465    -1.1199 H            1    LIG   0.0000
  38 H            8.1487    -5.9055     0.0337 H            1    LIG   0.0000
  39 H            6.8977    -6.8723     0.4424 H            1    LIG   0.0000
  40 H            6.3962    -4.3952     1.5046 H            1    LIG   0.0000
  41 H            5.4632    -3.0841     3.3870 H            1    LIG   0.0000
  42 H            4.8979    -1.5114     5.4381 H            1    LIG   0.0000
  43 H            4.9240     0.0714     5.0372 H            1    LIG   0.0000
  44 H            3.4969    -0.6988     5.2292 H            1    LIG   0.0000
  45 H            3.2584     1.9220    -0.0202 H            1    LIG   0.0000
  46 H            2.0086     3.9522     0.0036 H            1    LIG   0.0000
@<TRIPOS>BOND
   1        1        2 1
   2        2        3 1
   3        3        4 ar
   4        4        5 ar
   5        5        6 ar
   6        6        7 1
   7        7        8 1
   8        8        9 1
   9        9       10 ar
  10       10       11 1
  11       10       12 ar
  12       12       13 ar
  13       13       14 1
  14       13       15 ar
  15       15       16 ar
  16       16        9 ar
  17       16       17 1
  18       17       18 2
  19       18       19 1
  20       19       20 1
  21       19       21 2
  22       21       22 1
  23       22       17 1
  24       22        7 1
  25        6       23 ar
  26       23       24 ar
  27       24        3 ar
  28       24       25 1
  29        7       26 1
  30        1       27 1
  31        1       28 1
  32        1       29 1
  33        4       30 1
  34        5       31 1
  35        8       32 1
  36       11       33 1
  37       11       34 1
  38       11       35 1
  39       12       36 1
  40       14       37 1
  41       14       38 1
  42       14       39 1
  43       15       40 1
  44       18       41 1
  45       20       42 1
  46       20       43 1
  47       20       44 1
  48       23       45 1
  49       25       46 1

@<TRIPOS>MOLECULE

  46   49
SMALL
USER_CHARGES
@<TRIPOS>ATOM
   1 C1          -2.3553     1.2187     0.0328 C.3          1    LIG   0.0000
   2 O2          -1.1948     2.0371     0.0243 O.3          1    LIG   0.0000
   3 C3          -0.0178     1.3763     0.0090 C.ar         1    LIG   0.0000
   4 C4          -0.0163    -0.0147     0.0026 C.ar         1    LIG   0.0000
   5 C5           1.1996    -0.6910    -0.0125 C.ar         1    LIG   0.0000
   6 C6           2.3933     0.0238    -0.0216 C.ar         1    LIG   0.0000
   7 C7           3.7222    -0.7133    -0.0371 C.3          1    LIG   0.0000
   8 N8           4.6123    -0.1958     1.0117 N.pl3        1    LIG   0.0000
   9 C9           6.0018    -0.3558     0.9460 C.ar         1    LIG   0.0000
  10 C10          6.8083    -0.3469     2.0829 C.ar         1    LIG   0.0000
  11 C11          6.2229    -0.1643     3.4742 C.3          1    LIG   0.0000
  12 C12          8.1870    -0.5057     1.9791 C.ar         1    LIG   0.0000
  13 C13          8.7584    -0.6748     0.7223 C.ar         1    LIG   0.0000
  14 C14         10.2644    -0.8488     0.6043 C.3          1    LIG   0.0000
  15 C15          7.9388    -0.6814    -0.4042 C.ar         1    LIG   0.0000
  16 C16          6.5574    -0.5235    -0.3164 C.ar         1    LIG   0.0000
  17 C17          5.6981    -0.5383    -1.4871 C.2          1    LIG   0.0000
  18 C18          5.9770    -0.4680    -2.8210 C.2          1    LIG   0.0000
  19 C19          4.7212    -0.5218    -3.4676 C.2          1    LIG   0.0000
  20 C20          4.5025    -0.4741    -4.9714 C.3          1    LIG   0.0000
  21 N21          3.7858    -0.6151    -2.5520 N.2          1    LIG   0.0000
  22 N22          4.3503    -0.6216    -1.3655 N.pl3        1    LIG   0.0000
  23 C23          2.3968     1.4145    -0.0145 C.ar         1    LIG   0.0000
  24 C24          1.1790     2.0860     0.0007 C.ar         1    LIG   0.0000
  25 O25          1.1526     3.4354     0.0095 O.3          1    LIG   0.0000
  26 H            3.5439    -1.6782     0.1557 H            1    LIG   0.0000
  27 H           -3.1710     1.7971     0.0440 H            1    LIG   0.0000
  28 H           -2.3646     0.6451    -0.7863 H            1    LIG   0.0000
  29 H           -2.3475     0.6377     0.8466 H            1    LIG   0.0000
  30 H           -0.8780    -0.5221     0.0089 H            1    LIG   0.0000
  31 H            1.2156    -1.6909    -0.0168 H            1    LIG   0.0000
  32 H            4.2146     0.2838     1.7939 H            1    LIG   0.0000
  33 H            6.9588    -0.1869     4.1509 H            1    LIG   0.0000
  34 H            5.7508     0.7158     3.5243 H            1    LIG   0.0000
  35 H            5.5742    -0.9017     3.6623 H            1    LIG   0.0000
  36 H            8.7602    -0.4982     2.7986 H            1    LIG   0.0000
  37 H           10.6761    -0.8162     1.5150 H            1    LIG   0.0000
  38 H           10.4657    -1.7312     0.1789 H            1    LIG   0.0000
  39 H           10.6418    -0.1135     0.0414 H            1    LIG   0.0000
  40 H            8.3555    -0.8034    -1.3050 H            1    LIG   0.0000
  41 H            6.8775    -0.3943    -3.2495 H            1    LIG   0.0000
  42 H            5.3859    -0.4022    -5.4346 H            1    LIG   0.0000
  43 H            4.0379    -1.3087    -5.2674 H            1    LIG   0.0000
  44 H            3.9399     0.3200    -5.2014 H            1    LIG   0.0000
  45 H            3.2584     1.9220    -0.0202 H            1    LIG   0.0000
  46 H            2.0086     3.9522     0.0036 H            1    LIG   0.0000
@<TRIPOS>BOND
   1        1        2 1
   2        2        3 1
   3        3        4 ar
   4        4        5 ar
   5        5        6 ar
   6        6        7 1
   7        7        8 1
   8        8        9 1
   9        9       10 ar
  10       10       11 1
  11       10       12 ar
  12       12       13 ar
  13       13       14 1
  14       13       15 ar
  15       15       16 ar
  16       16        9 ar
  17       16       17 1
  18       17       18 2
  19       18       19 1
  20       19       20 1
  21       19       21 2
  22       21       22 1
  23       22       17 1
  24       22        7 1
  25        6       23 ar
  26       23       24 ar
  27       24        3 ar
  28       24       25 1
  29        7       26 1
  30        1       27 1
  31        1       28 1
  32        1       29 1
  33        4       30 1
  34        5       31 1
  35        8       32 1
  36       11       33 1
  37       11       34 1
  38       11       35 1
  39       12       36 1
  40       14       37 1
  41       14       38 1
  42       14       39 1
  43       15       40 1
  44       18       41 1
  45       20       42 1
  46       20       43 1
  47       20       44 1
  48       23       45 1
  49       25       46 1

@<TRIPOS>MOLECULE

  46   49
SMALL
USER_CHARGES
@<TRIPOS>ATOM
   1 C1          -2.3553     1.2187     0.0328 C.3          1    LIG   0.0000
   2 O2          -1.1948     2.0371     0.0243 O.3          1    LIG   0.0000
   3 C3          -0.0178     1.3763     0.0090 C.ar         1    LIG   0.0000
   4 C4          -0.0163    -0.0147     0.0026 C.ar         1    LIG   0.0000
   5 C5           1.1996    -0.6910    -0.0125 C.ar         1    LIG   0.0000
   6 C6           2.3933     0.0238    -0.0216 C.ar         1    LIG   0.0000
   7 C7           3.7233    -0.7139    -0.0372 C.3          1    LIG   0.0000
   8 N8           3.5870    -1.8692     0.8613 N.pl3        1    LIG   0.0000
   9 C9           3.6915    -1.6376     2.2346 C.ar         1    LIG   0.0000
  10 C10          3.0036    -2.4600     3.1256 C.ar         1    LIG   0.0000
  11 C11          2.1807    -3.6548     2.6489 C.3          1    LIG   0.0000
  12 C12          3.0446    -2.1929     4.4924 C.ar         1    LIG   0.0000
  13 C13          3.7804    -1.1045     4.9481 C.ar         1    LIG   0.0000
  14 C14          3.8071    -0.7843     6.4377 C.3          1    LIG   0.0000
  15 C15          4.4713    -0.3239     4.0218 C.ar         1    LIG   0.0000
  16 C16          4.4626    -0.5636     2.6464 C.ar         1    LIG   0.0000
  17 C17          5.1797     0.2442     1.6644 C.2          1    LIG   0.0000
  18 C18          6.2000     1.1451     1.7174 C.2          1    LIG   0.0000
  19 C19          6.4285     1.5944     0.3956 C.2          1    LIG   0.0000
  20 C20          7.4733     2.6126    -0.0328 C.3          1    LIG   0.0000
  21 N21          5.5766     0.9791    -0.3903 N.2          1    LIG   0.0000
  22 N22          4.8295     0.1800     0.3543 N.pl3        1    LIG   0.0000
  23 C23          2.3968     1.4145    -0.0145 C.ar         1    LIG   0.0000
  24 C24          1.1790     2.0860     0.0007 C.ar         1    LIG   0.0000
  25 O25          1.1526     3.4354     0.0095 O.3          1    LIG   0.0000
  26 H            3.8938    -1.0475    -0.9643 H            1    LIG   0.0000
  27 H           -3.1710     1.7971     0.0440 H            1    LIG   0.0000
  28 H           -2.3646     0.6451    -0.7863 H            1    LIG   0.0000
  29 H           -2.3475     0.6377     0.8466 H            1    LIG   0.0000
  30 H           -0.8780    -0.5221     0.0089 H            1    LIG   0.0000
  31 H            1.2156    -1.6909    -0.0168 H            1    LIG   0.0000
  32 H            3.4251    -2.7883     0.5020 H            1    LIG   0.0000
  33 H            1.7691    -4.1119     3.4373 H            1    LIG   0.0000
  34 H            1.4593    -3.3382     2.0331 H            1    LIG   0.0000
  35 H            2.7749    -4.2966     2.1642 H            1    LIG   0.0000
  36 H            2.5512    -2.7764     5.1374 H            1    LIG   0.0000
  37 H            3.2547    -1.4550     6.9328 H            1    LIG   0.0000
  38 H            4.7498    -0.8190     6.7693 H            1    LIG   0.0000
  39 H            3.4341     0.1312     6.5886 H            1    LIG   0.0000
  40 H            5.0033     0.4515     4.3620 H            1    LIG   0.0000
  41 H            6.6946     1.4346     2.5369 H            1    LIG   0.0000
  42 H            7.9863     2.9211     0.7683 H            1    LIG   0.0000
  43 H            8.1003     2.1913    -0.6881 H            1    LIG   0.0000
  44 H            7.0206     3.3951    -0.4603 H            1    LIG   0.0000
  45 H            3.2584     1.9220    -0.0202 H            1    LIG   0.0000
  46 H            2.0086     3.9522     0.0036 H            1    LIG   0.0000
@<TRIPOS>BOND
   1        1        2 1
   2        2        3 1
   3        3        4 ar
   4        4        5 ar
   5        5        6 ar
   6        6        7 1
   7        7        8 1
   8        8        9 1
   9        9       10 ar
  10       10       11 1
  11       10       12 ar
  12       12       13 ar
  13       13       14 1
  14       13       15 ar
  15       15       16 ar
  16       16        9 ar
  17       16       17 1
  18       17       18 2
  19       18       19 1
  20       19       20 1
  21       19       21 2
  22       21       22 1
  23       22       17 1
  24       22        7 1
  25        6       23 ar
  26       23       24 ar
  27       24        3 ar
  28       24       25 1
  29        7       26 1
  30        1       27 1
  31        1       28 1
  32        1       29 1
  33        4       30 1
  34        5       31 1
  35        8       32 1
  36       11       33 1
  37       11       34 1
  38       11       35 1
  39       12       36 1
  40       14       37 1
  41       14       38 1
  42       14       39 1
  43       15       40 1
  44       18       41 1
  45       20       42 1
  46       20       43 1
  47       20       44 1
  48       23       45 1
  49       25       46 1

@<TRIPOS>MOLECULE

  46   49
SMALL
USER_CHARGES
@<TRIPOS>ATOM
   1 C1          -2.3553     1.2187     0.0328 C.3          1    LIG   0.0000
   2 O2          -1.1948     2.0371     0.0243 O.3          1    LIG   0.0000
   3 C3          -0.0178     1.3763     0.0090 C.ar         1    LIG   0.0000
   4 C4          -0.0163    -0.0147     0.0026 C.ar         1    LIG   0.0000
   5 C5           1.1996    -0.6910    -0.0125 C.ar         1    LIG   0.0000
   6 C6           2.3933     0.0238    -0.0216 C.ar         1    LIG   0.0000
   7 C7           3.7233    -0.7139    -0.0372 C.3          1    LIG   0.0000
   8 N8           3.4195    -2.1520    -0.0418 N.pl3        1    LIG   0.0000
   9 C9           3.0658    -2.7432     1.1731 C.ar         1    LIG   0.0000
  10 C10          2.2123    -3.8455     1.1794 C.ar         1    LIG   0.0000
  11 C11          1.6951    -4.4720    -0.1136 C.3          1    LIG   0.0000
  12 C12          1.7974    -4.3971     2.3896 C.ar         1    LIG   0.0000
  13 C13          2.2488    -3.8370     3.5796 C.ar         1    LIG   0.0000
  14 C14          1.7768    -4.4124     4.9093 C.3          1    LIG   0.0000
  15 C15          3.1201    -2.7495     3.5236 C.ar         1    LIG   0.0000
  16 C16          3.5657    -2.1740     2.3323 C.ar         1    LIG   0.0000
  17 C17          4.4768    -1.0358     2.2570 C.2          1    LIG   0.0000
  18 C18          5.3407    -0.4337     3.1210 C.2          1    LIG   0.0000
  19 C19          5.9298     0.6524     2.4322 C.2          1    LIG   0.0000
  20 C20          6.9573     1.6182     3.0011 C.3          1    LIG   0.0000
  21 N21          5.4286     0.6782     1.2198 N.2          1    LIG   0.0000
  22 N22          4.5629    -0.3165     1.1087 N.pl3        1    LIG   0.0000
  23 C23          2.3968     1.4145    -0.0145 C.ar         1    LIG   0.0000
  24 C24          1.1790     2.0860     0.0007 C.ar         1    LIG   0.0000
  25 O25          1.1526     3.4354     0.0095 O.3          1    LIG   0.0000
  26 H            4.2063    -0.4858    -0.8825 H            1    LIG   0.0000
  27 H           -3.1710     1.7971     0.0440 H            1    LIG   0.0000
  28 H           -2.3646     0.6451    -0.7863 H            1    LIG   0.0000
  29 H           -2.3475     0.6377     0.8466 H            1    LIG   0.0000
  30 H           -0.8780    -0.5221     0.0089 H            1    LIG   0.0000
  31 H            1.2156    -1.6909    -0.0168 H            1    LIG   0.0000
  32 H            3.4645    -2.6880    -0.8848 H            1    LIG   0.0000
  33 H            1.1010    -5.2461     0.1055 H            1    LIG   0.0000
  34 H            1.1773    -3.7903    -0.6305 H            1    LIG   0.0000
  35 H            2.4682    -4.7900    -0.6624 H            1    LIG   0.0000
  36 H            1.1828    -5.1859     2.4022 H            1    LIG   0.0000
  37 H            1.1616    -5.1824     4.7398 H            1    LIG   0.0000
  38 H            2.5668    -4.7267     5.4358 H            1    LIG   0.0000
  39 H            1.2922    -3.7059     5.4251 H            1    LIG   0.0000
  40 H            3.4441    -2.3600     4.3857 H            1    LIG   0.0000
  41 H            5.5241    -0.7081     4.0650 H            1    LIG   0.0000
  42 H            7.1620     1.3679     3.9474 H            1    LIG   0.0000
  43 H            7.7944     1.5735     2.4560 H            1    LIG   0.0000
  44 H            6.5912     2.5484     2.9741 H            1    LIG   0.0000
  45 H            3.2584     1.9220    -0.0202 H            1    LIG   0.0000
  46 H            2.0086     3.9522     0.0036 H            1    LIG   0.0000
@<TRIPOS>BOND
   1        1        2 1
   2        2        3 1
   3        3        4 ar
   4        4        5 ar
   5        5        6 ar
   6        6        7 1
   7        7        8 1
   8        8        9 1
   9        9       10 ar
  10       10       11 1
  11       10       12 ar
  12       12       13 ar
  13       13       14 1
  14       13       15 ar
  15       15       16 ar
  16       16        9 ar
  17       16       17 1
  18       17       18 2
  19       18       19 1
  20       19       20 1
  21       19       21 2
  22       21       22 1
  23       22       17 1
  24       22        7 1
  25        6       23 ar
  26       23       24 ar
  27       24        3 ar
  28       24       25 1
  29        7       26 1
  30        1       27 1
  31        1       28 1
  32        1       29 1
  33        4       30 1
  34        5       31 1
  35        8       32 1
  36       11       33 1
  37       11       34 1
  38       11       35 1
  39       12       36 1
  40       14       37 1
  41       14       38 1
  42       14       39 1
  43       15       40 1
  44       18       41 1
  45       20       42 1
  46       20       43 1
  47       20       44 1
  48       23       45 1
  49       25       46 1

@<TRIPOS>MOLECULE

  46   49
SMALL
USER_CHARGES
@<TRIPOS>ATOM
   1 C1          -2.3553     1.2187     0.0328 C.3          1    LIG   0.0000
   2 O2          -1.1948     2.0371     0.0243 O.3          1    LIG   0.0000
   3 C3          -0.0178     1.3763     0.0090 C.ar         1    LIG   0.0000
   4 C4          -0.0163    -0.0147     0.0026 C.ar         1    LIG   0.0000
   5 C5           1.1996    -0.6910    -0.0125 C.ar         1    LIG   0.0000
   6 C6           2.3933     0.0238    -0.0216 C.ar         1    LIG   0.0000
   7 C7           3.7233    -0.7139    -0.0372 C.3          1    LIG   0.0000
   8 N8           3.9949    -1.1438     1.3419 N.pl3        1    LIG   0.0000
   9 C9           4.4945    -0.1898     2.2313 C.ar         1    LIG   0.0000
  10 C10          4.2074    -0.2995     3.5911 C.ar         1    LIG   0.0000
  11 C11          3.4086    -1.4728     4.1543 C.3          1    LIG   0.0000
  12 C12          4.6411     0.6858     4.4754 C.ar         1    LIG   0.0000
  13 C13          5.3624     1.7680     3.9831 C.ar         1    LIG   0.0000
  14 C14          5.8150     2.8675     4.9362 C.3          1    LIG   0.0000
  15 C15          5.6458     1.8232     2.6187 C.ar         1    LIG   0.0000
  16 C16          5.2370     0.8526     1.7023 C.ar         1    LIG   0.0000
  17 C17          5.5251     0.8962     0.2718 C.2          1    LIG   0.0000
  18 C18          6.4103     1.5713    -0.5131 C.2          1    LIG   0.0000
  19 C19          6.1693     1.1745    -1.8494 C.2          1    LIG   0.0000
  20 C20          6.9162     1.6725    -3.0767 C.3          1    LIG   0.0000
  21 N21          5.1861     0.3056    -1.8390 N.2          1    LIG   0.0000
  22 N22          4.7952     0.1380    -0.5859 N.pl3        1    LIG   0.0000
  23 C23          2.3968     1.4145    -0.0145 C.ar         1    LIG   0.0000
  24 C24          1.1790     2.0860     0.0007 C.ar         1    LIG   0.0000
  25 O25          1.1526     3.4354     0.0095 O.3          1    LIG   0.0000
  26 H            3.6326    -1.5258    -0.6138 H            1    LIG   0.0000
  27 H           -3.1710     1.7971     0.0440 H            1    LIG   0.0000
  28 H           -2.3646     0.6451    -0.7863 H            1    LIG   0.0000
  29 H           -2.3475     0.6377     0.8466 H            1    LIG   0.0000
  30 H           -0.8780    -0.5221     0.0089 H            1    LIG   0.0000
  31 H            1.2156    -1.6909    -0.0168 H            1    LIG   0.0000
  32 H            3.8280    -2.0858     1.6331 H            1    LIG   0.0000
  33 H            3.3122    -1.3659     5.1439 H            1    LIG   0.0000
  34 H            2.5027    -1.4929     3.7314 H            1    LIG   0.0000
  35 H            3.8879    -2.3279     3.9565 H            1    LIG   0.0000
  36 H            4.4364     0.6157     5.4517 H            1    LIG   0.0000
  37 H            5.5173     2.6468     5.8650 H            1    LIG   0.0000
  38 H            6.8122     2.9384     4.9138 H            1    LIG   0.0000
  39 H            5.4124     3.7387     4.6553 H            1    LIG   0.0000
  40 H            6.1718     2.6022     2.2774 H            1    LIG   0.0000
  41 H            7.1008     2.2247    -0.2029 H            1    LIG   0.0000
  42 H            7.6164     2.3295    -2.7970 H            1    LIG   0.0000
  43 H            7.3503     0.8994    -3.5392 H            1    LIG   0.0000
  44 H            6.2733     2.1161    -3.7010 H            1    LIG   0.0000
  45 H            3.2584     1.9220    -0.0202 H            1    LIG   0.0000
  46 H            2.0086     3.9522     0.0036 H            1    LIG   0.0000
@<TRIPOS>BOND
   1        1        2 1
   2        2        3 1
   3        3        4 ar
   4        4        5 ar
   5        5        6 ar
   6        6        7 1
   7        7        8 1
   8        8        9 1
   9        9       10 ar
  10       10       11 1
  11       10       12 ar
  12       12       13 ar
  13       13       14 1
  14       13       15 ar
  15       15       16 ar
  16       16        9 ar
  17       16       17 1
  18       17       18 2
  19       18       19 1
  20       19       20 1
  21       19       21 2
  22       21       22 1
  23       22       17 1
  24       22        7 1
  25        6       23 ar
  26       23       24 ar
  27       24        3 ar
  28       24       25 1
  29        7       26 1
  30        1       27 1
  31        1       28 1
  32        1       29 1
  33        4       30 1
  34        5       31 1
  35        8       32 1
  36       11       33 1
  37       11       34 1
  38       11       35 1
  39       12       36 1
  40       14       37 1
  41       14       38 1
  42       14       39 1
  43       15       40 1
  44       18       41 1
  45       20       42 1
  46       20       43 1
  47       20       44 1
  48       23       45 1
  49       25       46 1

@<TRIPOS>MOLECULE

  46   49
SMALL
USER_CHARGES
@<TRIPOS>ATOM
   1 C1          -2.3553     1.2187     0.0328 C.3          1    LIG   0.0000
   2 O2          -1.1948     2.0371     0.0243 O.3          1    LIG   0.0000
   3 C3          -0.0178     1.3763     0.0090 C.ar         1    LIG   0.0000
   4 C4          -0.0163    -0.0147     0.0026 C.ar         1    LIG   0.0000
   5 C5           1.1996    -0.6910    -0.0125 C.ar         1    LIG   0.0000
   6 C6           2.3933     0.0238    -0.0216 C.ar         1    LIG   0.0000
   7 C7           3.7233    -0.7139    -0.0372 C.3          1    LIG   0.0000
   8 N8           4.5295    -0.1281    -1.1176 N.pl3        1    LIG   0.0000
   9 C9           4.2506    -0.5313    -2.4254 C.ar         1    LIG   0.0000
  10 C10          4.4839     0.3484    -3.4814 C.ar         1    LIG   0.0000
  11 C11          5.0977     1.7291    -3.2599 C.3          1    LIG   0.0000
  12 C12          4.1420    -0.0186    -4.7812 C.ar         1    LIG   0.0000
  13 C13          3.5734    -1.2676    -5.0050 C.ar         1    LIG   0.0000
  14 C14          3.1667    -1.6675    -6.4181 C.3          1    LIG   0.0000
  15 C15          3.3803    -2.1232    -3.9208 C.ar         1    LIG   0.0000
  16 C16          3.7173    -1.7965    -2.6060 C.ar         1    LIG   0.0000
  17 C17          3.5211    -2.6803    -1.4608 C.2          1    LIG   0.0000
  18 C18          3.3025    -4.0151    -1.2995 C.2          1    LIG   0.0000
  19 C19          3.1817    -4.2528     0.0898 C.2          1    LIG   0.0000
  20 C20          2.9268    -5.6008     0.7457 C.3          1    LIG   0.0000
  21 N21          3.3248    -3.1040     0.7075 N.2          1    LIG   0.0000
  22 N22          3.5220    -2.1656    -0.2045 N.pl3        1    LIG   0.0000
  23 C23          2.3968     1.4145    -0.0145 C.ar         1    LIG   0.0000
  24 C24          1.1790     2.0860     0.0007 C.ar         1    LIG   0.0000
  25 O25          1.1526     3.4354     0.0095 O.3          1    LIG   0.0000
  26 H            4.1890    -0.5533     0.8331 H            1    LIG   0.0000
  27 H           -3.1710     1.7971     0.0440 H            1    LIG   0.0000
  28 H           -2.3646     0.6451    -0.7863 H            1    LIG   0.0000
  29 H           -2.3475     0.6377     0.8466 H            1    LIG   0.0000
  30 H           -0.8780    -0.5221     0.0089 H            1    LIG   0.0000
  31 H            1.2156    -1.6909    -0.0168 H            1    LIG   0.0000
  32 H            5.2519     0.5354    -0.9233 H            1    LIG   0.0000
  33 H            5.1820     2.2011    -4.1375 H            1    LIG   0.0000
  34 H            4.5102     2.2612    -2.6503 H            1    LIG   0.0000
  35 H            6.0030     1.6290    -2.8469 H            1    LIG   0.0000
  36 H            4.3035     0.6083    -5.5434 H            1    LIG   0.0000
  37 H            3.3852    -0.9245    -7.0507 H            1    LIG   0.0000
  38 H            3.6644    -2.4919    -6.6876 H            1    LIG   0.0000
  39 H            2.1835    -1.8484    -6.4434 H            1    LIG   0.0000
  40 H            2.9777    -3.0219    -4.0950 H            1    LIG   0.0000
  41 H            3.2394    -4.6986    -2.0267 H            1    LIG   0.0000
  42 H            2.8593    -6.3070     0.0409 H            1    LIG   0.0000
  43 H            3.6817    -5.8184     1.3644 H            1    LIG   0.0000
  44 H            2.0719    -5.5634     1.2630 H            1    LIG   0.0000
  45 H            3.2584     1.9220    -0.0202 H            1    LIG   0.0000
  46 H            2.0086     3.9522     0.0036 H            1    LIG   0.0000
@<TRIPOS>BOND
   1        1        2 1
   2        2        3 1
   3        3        4 ar
   4        4        5 ar
   5        5        6 ar
   6        6        7 1
   7        7        8 1
   8        8        9 1
   9        9       10 ar
  10       10       11 1
  11       10       12 ar
  12       12       13 ar
  13       13       14 1
  14       13       15 ar
  15       15       16 ar
  16       16        9 ar
  17       16       17 1
  18       17       18 2
  19       18       19 1
  20       19       20 1
  21       19       21 2
  22       21       22 1
  23       22       17 1
  24       22        7 1
  25        6       23 ar
  26       23       24 ar
  27       24        3 ar
  28       24       25 1
  29        7       26 1
  30        1       27 1
  31        1       28 1
  32        1       29 1
  33        4       30 1
  34        5       31 1
  35        8       32 1
  36       11       33 1
  37       11       34 1
  38       11       35 1
  39       12       36 1
  40       14       37 1
  41       14       38 1
  42       14       39 1
  43       15       40 1
  44       18       41 1
  45       20       42 1
  46       20       43 1
  47       20       44 1
  48       23       45 1
  49       25       46 1

@<TRIPOS>MOLECULE

  46   49
SMALL
USER_CHARGES
@<TRIPOS>ATOM
   1 C1          -2.3553     1.2187     0.0328 C.3          1    LIG   0.0000
   2 O2          -1.1948     2.0371     0.0243 O.3          1    LIG   0.0000
   3 C3          -0.0178     1.3763     0.0090 C.ar         1    LIG   0.0000
   4 C4          -0.0163    -0.0147     0.0026 C.ar         1    LIG   0.0000
   5 C5           1.1996    -0.6910    -0.0125 C.ar         1    LIG   0.0000
   6 C6           2.3933     0.0238    -0.0216 C.ar         1    LIG   0.0000
   7 C7           3.7233    -0.7139    -0.0372 C.3          1    LIG   0.0000
   8 N8           4.7824     0.3053    -0.0414 N.pl3        1    LIG   0.0000
   9 C9           5.0750     0.9304    -1.2555 C.ar         1    LIG   0.0000
  10 C10          5.5581     2.2381    -1.2575 C.ar         1    LIG   0.0000
  11 C11          5.8389     2.9958     0.0382 C.3          1    LIG   0.0000
  12 C12          5.7847     2.8942    -2.4655 C.ar         1    LIG   0.0000
  13 C13          5.5272     2.2265    -3.6578 C.ar         1    LIG   0.0000
  14 C14          5.7417     2.9448    -4.9845 C.3          1    LIG   0.0000
  15 C15          5.0670     0.9110    -3.6066 C.ar         1    LIG   0.0000
  16 C16          4.8360     0.2164    -2.4178 C.ar         1    LIG   0.0000
  17 C17          4.3541    -1.1598    -2.3475 C.2          1    LIG   0.0000
  18 C18          4.2852    -2.2028    -3.2208 C.2          1    LIG   0.0000
  19 C19          3.6880    -3.2845    -2.5320 C.2          1    LIG   0.0000
  20 C20          3.4025    -4.6618    -3.1095 C.3          1    LIG   0.0000
  21 N21          3.4226    -2.8850    -1.3105 N.2          1    LIG   0.0000
  22 N22          3.8101    -1.6251    -1.1939 N.pl3        1    LIG   0.0000
  23 C23          2.3968     1.4145    -0.0145 C.ar         1    LIG   0.0000
  24 C24          1.1790     2.0860     0.0007 C.ar         1    LIG   0.0000
  25 O25          1.1526     3.4354     0.0095 O.3          1    LIG   0.0000
  26 H            3.8006    -1.2528     0.8017 H            1    LIG   0.0000
  27 H           -3.1710     1.7971     0.0440 H            1    LIG   0.0000
  28 H           -2.3646     0.6451    -0.7863 H            1    LIG   0.0000
  29 H           -2.3475     0.6377     0.8466 H            1    LIG   0.0000
  30 H           -0.8780    -0.5221     0.0089 H            1    LIG   0.0000
  31 H            1.2156    -1.6909    -0.0168 H            1    LIG   0.0000
  32 H            5.2760     0.5426     0.7954 H            1    LIG   0.0000
  33 H            6.1772     3.9117    -0.1778 H            1    LIG   0.0000
  34 H            4.9959     3.0688     0.5711 H            1    LIG   0.0000
  35 H            6.5277     2.5029     0.5700 H            1    LIG   0.0000
  36 H            6.1282     3.8333    -2.4750 H            1    LIG   0.0000
  37 H            6.0722     3.8726    -4.8116 H            1    LIG   0.0000
  38 H            6.4170     2.4463    -5.5281 H            1    LIG   0.0000
  39 H            4.8767     2.9868    -5.4844 H            1    LIG   0.0000
  40 H            4.8926     0.4384    -4.4704 H            1    LIG   0.0000
  41 H            4.5981    -2.2037    -4.1706 H            1    LIG   0.0000
  42 H            3.7062    -4.6935    -4.0617 H            1    LIG   0.0000
  43 H            3.8932    -5.3537    -2.5799 H            1    LIG   0.0000
  44 H            2.4202    -4.8441    -3.0667 H            1    LIG   0.0000
  45 H            3.2584     1.9220    -0.0202 H            1    LIG   0.0000
  46 H            2.0086     3.9522     0.0036 H            1    LIG   0.0000
@<TRIPOS>BOND
   1        1        2 1
   2        2        3 1
   3        3        4 ar
   4        4        5 ar
   5        5        6 ar
   6        6        7 1
   7        7        8 1
   8        8        9 1
   9        9       10 ar
  10       10       11 1
  11       10       12 ar
  12       12       13 ar
  13       13       14 1
  14       13       15 ar
  15       15       16 ar
  16       16        9 ar
  17       16       17 1
  18       17       18 2
  19       18       19 1
  20       19       20 1
  21       19       21 2
  22       21       22 1
  23       22       17 1
  24       22        7 1
  25        6       23 ar
  26       23       24 ar
  27       24        3 ar
  28       24       25 1
  29        7       26 1
  30        1       27 1
  31        1       28 1
  32        1       29 1
  33        4       30 1
  34        5       31 1
  35        8       32 1
  36       11       33 1
  37       11       34 1
  38       11       35 1
  39       12       36 1
  40       14       37 1
  41       14       38 1
  42       14       39 1
  43       15       40 1
  44       18       41 1
  45       20       42 1
  46       20       43 1
  47       20       44 1
  48       23       45 1
  49       25       46 1

@<TRIPOS>MOLECULE

  46   49
SMALL
USER_CHARGES
@<TRIPOS>ATOM
   1 C1          -2.3553     1.2187     0.0328 C.3          1    LIG   0.0000
   2 O2          -1.1948     2.0371     0.0243 O.3          1    LIG   0.0000
   3 C3          -0.0178     1.3763     0.0090 C.ar         1    LIG   0.0000
   4 C4          -0.0163    -0.0147     0.0026 C.ar         1    LIG   0.0000
   5 C5           1.1996    -0.6910    -0.0125 C.ar         1    LIG   0.0000
   6 C6           2.3933     0.0238    -0.0216 C.ar         1    LIG   0.0000
   7 C7           3.7233    -0.7139    -0.0372 C.3          1    LIG   0.0000
   8 N8           3.9704    -1.1297    -1.4252 N.pl3        1    LIG   0.0000
   9 C9           3.2974    -2.2609    -1.8920 C.ar         1    LIG   0.0000
  10 C10          2.9820    -2.3643    -3.2460 C.ar         1    LIG   0.0000
  11 C11          3.4058    -1.3003    -4.2560 C.3          1    LIG   0.0000
  12 C12          2.2486    -3.4549    -3.7082 C.ar         1    LIG   0.0000
  13 C13          1.8443    -4.4314    -2.8045 C.ar         1    LIG   0.0000
  14 C14          1.0150    -5.6127    -3.2933 C.3          1    LIG   0.0000
  15 C15          2.2032    -4.2974    -1.4636 C.ar         1    LIG   0.0000
  16 C16          2.9441    -3.2252    -0.9630 C.ar         1    LIG   0.0000
  17 C17          3.3270    -3.0702     0.4372 C.2          1    LIG   0.0000
  18 C18          3.3989    -3.9007     1.5145 C.2          1    LIG   0.0000
  19 C19          3.8379    -3.1230     2.6117 C.2          1    LIG   0.0000
  20 C20          4.0608    -3.6256     4.0294 C.3          1    LIG   0.0000
  21 N21          4.0134    -1.8937     2.1877 N.2          1    LIG   0.0000
  22 N22          3.7086    -1.8525     0.9006 N.pl3        1    LIG   0.0000
  23 C23          2.3968     1.4145    -0.0145 C.ar         1    LIG   0.0000
  24 C24          1.1790     2.0860     0.0007 C.ar         1    LIG   0.0000
  25 O25          1.1526     3.4354     0.0095 O.3          1    LIG   0.0000
  26 H            4.4448    -0.0796     0.2405 H            1    LIG   0.0000
  27 H           -3.1710     1.7971     0.0440 H            1    LIG   0.0000
  28 H           -2.3646     0.6451    -0.7863 H            1    LIG   0.0000
  29 H           -2.3475     0.6377     0.8466 H            1    LIG   0.0000
  30 H           -0.8780    -0.5221     0.0089 H            1    LIG   0.0000
  31 H            1.2156    -1.6909    -0.0168 H            1    LIG   0.0000
  32 H            4.5979    -0.6206    -2.0143 H            1    LIG   0.0000
  33 H            3.0846    -1.5587    -5.1670 H            1    LIG   0.0000
  34 H            3.0074    -0.4197    -3.9994 H            1    LIG   0.0000
  35 H            4.4030    -1.2256    -4.2629 H            1    LIG   0.0000
  36 H            2.0159    -3.5345    -4.6775 H            1    LIG   0.0000
  37 H            0.8638    -5.5289    -4.2783 H            1    LIG   0.0000
  38 H            1.5030    -6.4644    -3.1023 H            1    LIG   0.0000
  39 H            0.1340    -5.6200    -2.8203 H            1    LIG   0.0000
  40 H            1.9134    -5.0097    -0.8243 H            1    LIG   0.0000
  41 H            3.1821    -4.8768     1.5274 H            1    LIG   0.0000
  42 H            3.8519    -4.6025     4.0734 H            1    LIG   0.0000
  43 H            5.0148    -3.4766     4.2897 H            1    LIG   0.0000
  44 H            3.4624    -3.1281     4.6574 H            1    LIG   0.0000
  45 H            3.2584     1.9220    -0.0202 H            1    LIG   0.0000
  46 H            2.0086     3.9522     0.0036 H            1    LIG   0.0000
@<TRIPOS>BOND
   1        1        2 1
   2        2        3 1
   3        3        4 ar
   4        4        5 ar
   5        5        6 ar
   6        6        7 1
   7        7        8 1
   8        8        9 1
   9        9       10 ar
  10       10       11 1
  11       10       12 ar
  12       12       13 ar
  13       13       14 1
  14       13       15 ar
  15       15       16 ar
  16       16        9 ar
  17       16       17 1
  18       17       18 2
  19       18       19 1
  20       19       20 1
  21       19       21 2
  22       21       22 1
  23       22       17 1
  24       22        7 1
  25        6       23 ar
  26       23       24 ar
  27       24        3 ar
  28       24       25 1
  29        7       26 1
  30        1       27 1
  31        1       28 1
  32        1       29 1
  33        4       30 1
  34        5       31 1
  35        8       32 1
  36       11       33 1
  37       11       34 1
  38       11       35 1
  39       12       36 1
  40       14       37 1
  41       14       38 1
  42       14       39 1
  43       15       40 1
  44       18       41 1
  45       20       42 1
  46       20       43 1
  47       20       44 1
  48       23       45 1
  49       25       46 1

@<TRIPOS>MOLECULE

  46   49
SMALL
USER_CHARGES
@<TRIPOS>ATOM
   1 C1          -2.3553     1.2187     0.0328 C.3          1    LIG   0.0000
   2 O2          -1.1948     2.0371     0.0243 O.3          1    LIG   0.0000
   3 C3          -0.0178     1.3763     0.0090 C.ar         1    LIG   0.0000
   4 C4          -0.0163    -0.0147     0.0026 C.ar         1    LIG   0.0000
   5 C5           1.1996    -0.6910    -0.0125 C.ar         1    LIG   0.0000
   6 C6           2.3933     0.0238    -0.0216 C.ar         1    LIG   0.0000
   7 C7           3.7233    -0.7139    -0.0372 C.3          1    LIG   0.0000
   8 N8           3.5709    -1.8600    -0.9448 N.pl3        1    LIG   0.0000
   9 C9           2.9102    -2.9894    -0.4567 C.ar         1    LIG   0.0000
  10 C10          2.2038    -3.8077    -1.3369 C.ar         1    LIG   0.0000
  11 C11          2.1789    -3.5422    -2.8405 C.3          1    LIG   0.0000
  12 C12          1.4830    -4.8956    -0.8491 C.ar         1    LIG   0.0000
  13 C13          1.4841    -5.1509     0.5179 C.ar         1    LIG   0.0000
  14 C14          0.6741    -6.3193     1.0662 C.3          1    LIG   0.0000
  15 C15          2.2243    -4.3188     1.3573 C.ar         1    LIG   0.0000
  16 C16          2.9660    -3.2251     0.9068 C.ar         1    LIG   0.0000
  17 C17          3.7451    -2.3447     1.7723 C.2          1    LIG   0.0000
  18 C18          4.2345    -2.4265     3.0409 C.2          1    LIG   0.0000
  19 C19          4.9067    -1.2106     3.3074 C.2          1    LIG   0.0000
  20 C20          5.6096    -0.8454     4.6054 C.3          1    LIG   0.0000
  21 N21          4.8112    -0.4564     2.2379 N.2          1    LIG   0.0000
  22 N22          4.1202    -1.1192     1.3245 N.pl3        1    LIG   0.0000
  23 C23          2.3968     1.4145    -0.0145 C.ar         1    LIG   0.0000
  24 C24          1.1790     2.0860     0.0007 C.ar         1    LIG   0.0000
  25 O25          1.1526     3.4354     0.0095 O.3          1    LIG   0.0000
  26 H            4.4239    -0.1035    -0.4067 H            1    LIG   0.0000
  27 H           -3.1710     1.7971     0.0440 H            1    LIG   0.0000
  28 H           -2.3646     0.6451    -0.7863 H            1    LIG   0.0000
  29 H           -2.3475     0.6377     0.8466 H            1    LIG   0.0000
  30 H           -0.8780    -0.5221     0.0089 H            1    LIG   0.0000
  31 H            1.2156    -1.6909    -0.0168 H            1    LIG   0.0000
  32 H            3.9276    -1.8319    -1.8786 H            1    LIG   0.0000
  33 H            1.6205    -4.2378    -3.2926 H            1    LIG   0.0000
  34 H            1.7887    -2.6377    -3.0129 H            1    LIG   0.0000
  35 H            3.1111    -3.5772    -3.2007 H            1    LIG   0.0000
  36 H            0.9713    -5.4853    -1.4739 H            1    LIG   0.0000
  37 H            0.2173    -6.7913     0.3122 H            1    LIG   0.0000
  38 H            1.2845    -6.9562     1.5372 H            1    LIG   0.0000
  39 H           -0.0111    -5.9772     1.7092 H            1    LIG   0.0000
  40 H            2.2239    -4.5168     2.3375 H            1    LIG   0.0000
  41 H            4.1369    -3.2006     3.6663 H            1    LIG   0.0000
  42 H            5.5292    -1.6034     5.2527 H            1    LIG   0.0000
  43 H            6.5759    -0.6649     4.4218 H            1    LIG   0.0000
  44 H            5.1859    -0.0278     4.9953 H            1    LIG   0.0000
  45 H            3.2584     1.9220    -0.0202 H            1    LIG   0.0000
  46 H            2.0086     3.9522     0.0036 H            1    LIG   0.0000
@<TRIPOS>BOND
   1        1        2 1
   2        2        3 1
   3        3        4 ar
   4        4        5 ar
   5        5        6 ar
   6        6        7 1
   7        7        8 1
   8        8        9 1
   9        9       10 ar
  10       10       11 1
  11       10       12 ar
  12       12       13 ar
  13       13       14 1
  14       13       15 ar
  15       15       16 ar
  16       16        9 ar
  17       16       17 1
  18       17       18 2
  19       18       19 1
  20       19       20 1
  21       19       21 2
  22       21       22 1
  23       22       17 1
  24       22        7 1
  25        6       23 ar
  26       23       24 ar
  27       24        3 ar
  28       24       25 1
  29        7       26 1
  30        1       27 1
  31        1       28 1
  32        1       29 1
  33        4       30 1
  34        5       31 1
  35        8       32 1
  36       11       33 1
  37       11       34 1
  38       11       35 1
  39       12       36 1
  40       14       37 1
  41       14       38 1
  42       14       39 1
  43       15       40 1
  44       18       41 1
  45       20       42 1
  46       20       43 1
  47       20       44 1
  48       23       45 1
  49       25       46 1

@<TRIPOS>MOLECULE

  46   49
SMALL
USER_CHARGES
@<TRIPOS>ATOM
   1 C1          -2.3553     1.2187     0.0328 C.3          1    LIG   0.0000
   2 O2          -1.1948     2.0371     0.0243 O.3          1    LIG   0.0000
   3 C3          -0.0178     1.3763     0.0090 C.ar         1    LIG   0.0000
   4 C4          -0.0163    -0.0147     0.0026 C.ar         1    LIG   0.0000
   5 C5           1.1996    -0.6910    -0.0125 C.ar         1    LIG   0.0000
   6 C6           2.3933     0.0238    -0.0216 C.ar         1    LIG   0.0000
   7 C7           3.7233    -0.7139    -0.0372 C.3          1    LIG   0.0000
   8 N8           4.5486    -0.1391     1.0348 N.pl3        1    LIG   0.0000
   9 C9           5.1817     1.0798     0.7819 C.ar         1    LIG   0.0000
  10 C10          5.4371     1.9546     1.8369 C.ar         1    LIG   0.0000
  11 C11          5.0999     1.5949     3.2821 C.3          1    LIG   0.0000
  12 C12          6.0031     3.2024     1.5845 C.ar         1    LIG   0.0000
  13 C13          6.3099     3.5547     0.2748 C.ar         1    LIG   0.0000
  14 C14          6.9004     4.9289    -0.0166 C.3          1    LIG   0.0000
  15 C15          6.0582     2.6377    -0.7453 C.ar         1    LIG   0.0000
  16 C16          5.5009     1.3755    -0.5328 C.ar         1    LIG   0.0000
  17 C17          5.2309     0.4050    -1.5894 C.2          1    LIG   0.0000
  18 C18          5.6449     0.2414    -2.8767 C.2          1    LIG   0.0000
  19 C19          4.9952    -0.9099    -3.3804 C.2          1    LIG   0.0000
  20 C20          5.1480    -1.4796    -4.7819 C.3          1    LIG   0.0000
  21 N21          4.2370    -1.3933    -2.4247 N.2          1    LIG   0.0000
  22 N22          4.3672    -0.6172    -1.3608 N.pl3        1    LIG   0.0000
  23 C23          2.3968     1.4145    -0.0145 C.ar         1    LIG   0.0000
  24 C24          1.1790     2.0860     0.0007 C.ar         1    LIG   0.0000
  25 O25          1.1526     3.4354     0.0095 O.3          1    LIG   0.0000
  26 H            3.5572    -1.6783     0.1686 H            1    LIG   0.0000
  27 H           -3.1710     1.7971     0.0440 H            1    LIG   0.0000
  28 H           -2.3646     0.6451    -0.7863 H            1    LIG   0.0000
  29 H           -2.3475     0.6377     0.8466 H            1    LIG   0.0000
  30 H           -0.8780    -0.5221     0.0089 H            1    LIG   0.0000
  31 H            1.2156    -1.6909    -0.0168 H            1    LIG   0.0000
  32 H            4.6530    -0.6043     1.9138 H            1    LIG   0.0000
  33 H            5.3591     2.3510     3.8830 H            1    LIG   0.0000
  34 H            4.1175     1.4264     3.3632 H            1    LIG   0.0000
  35 H            5.6023     0.7717     3.5466 H            1    LIG   0.0000
  36 H            6.1864     3.8365     2.3357 H            1    LIG   0.0000
  37 H            7.0050     5.4351     0.8394 H            1    LIG   0.0000
  38 H            7.7942     4.8222    -0.4521 H            1    LIG   0.0000
  39 H            6.2894     5.4313    -0.6284 H            1    LIG   0.0000
  40 H            6.2901     2.8991    -1.6823 H            1    LIG   0.0000
  41 H            6.2875     0.8254    -3.3727 H            1    LIG   0.0000
  42 H            5.7875    -0.9148    -5.3034 H            1    LIG   0.0000
  43 H            5.4984    -2.4145    -4.7253 H            1    LIG   0.0000
  44 H            4.2584    -1.4841    -5.2386 H            1    LIG   0.0000
  45 H            3.2584     1.9220    -0.0202 H            1    LIG   0.0000
  46 H            2.0086     3.9522     0.0036 H            1    LIG   0.0000
@<TRIPOS>BOND
   1        1        2 1
   2        2        3 1
   3        3        4 ar
   4        4        5 ar
   5        5        6 ar
   6        6        7 1
   7        7        8 1
   8        8        9 1
   9        9       10 ar
  10       10       11 1
  11       10       12 ar
  12       12       13 ar
  13       13       14 1
  14       13       15 ar
  15       15       16 ar
  16       16        9 ar
  17       16       17 1
  18       17       18 2
  19       18       19 1
  20       19       20 1
  21       19       21 2
  22       21       22 1
  23       22       17 1
  24       22        7 1
  25        6       23 ar
  26       23       24 ar
  27       24        3 ar
  28       24       25 1
  29        7       26 1
  30        1       27 1
  31        1       28 1
  32        1       29 1
  33        4       30 1
  34        5       31 1
  35        8       32 1
  36       11       33 1
  37       11       34 1
  38       11       35 1
  39       12       36 1
  40       14       37 1
  41       14       38 1
  42       14       39 1
  43       15       40 1
  44       18       41 1
  45       20       42 1
  46       20       43 1
  47       20       44 1
  48       23       45 1
  49       25       46 1

@<TRIPOS>MOLECULE

  46   49
SMALL
USER_CHARGES
@<TRIPOS>ATOM
   1 C1          -2.3022     1.3259    -0.5090 C.3          1    LIG   0.0000
   2 O2          -1.1948     2.0371     0.0243 O.3          1    LIG   0.0000
   3 C3          -0.0178     1.3763     0.0090 C.ar         1    LIG   0.0000
   4 C4          -0.0163    -0.0147     0.0026 C.ar         1    LIG   0.0000
   5 C5           1.1996    -0.6910    -0.0125 C.ar         1    LIG   0.0000
   6 C6           2.3933     0.0238    -0.0216 C.ar         1    LIG   0.0000
   7 C7           3.7234    -0.7139    -0.0372 C.3          1    LIG   0.0000
   8 N8           4.7782     0.3043    -0.0413 N.pl3        1    LIG   0.0000
   9 C9           6.0200     0.1148    -0.6634 C.ar         1    LIG   0.0000
  10 C10          7.1569     0.8179    -0.2733 C.ar         1    LIG   0.0000
  11 C11          7.1283     1.7921     0.8926 C.3          1    LIG   0.0000
  12 C12          8.3660     0.6574    -0.9414 C.ar         1    LIG   0.0000
  13 C13          8.4162    -0.2260    -2.0133 C.ar         1    LIG   0.0000
  14 C14          9.7172    -0.3682    -2.7850 C.3          1    LIG   0.0000
  15 C15          7.2889    -0.9546    -2.3777 C.ar         1    LIG   0.0000
  16 C16          6.0795    -0.8032    -1.7019 C.ar         1    LIG   0.0000
  17 C17          4.8781    -1.5633    -2.0233 C.2          1    LIG   0.0000
  18 C18          4.6172    -2.3950    -3.0697 C.2          1    LIG   0.0000
  19 C19          3.2979    -2.8522    -2.8642 C.2          1    LIG   0.0000
  20 C20          2.5404    -3.8068    -3.7737 C.3          1    LIG   0.0000
  21 N21          2.8348    -2.3136    -1.7621 N.2          1    LIG   0.0000
  22 N22          3.7661    -1.5355    -1.2532 N.pl3        1    LIG   0.0000
  23 C23          2.3968     1.4145    -0.0145 C.ar         1    LIG   0.0000
  24 C24          1.1790     2.0860     0.0007 C.ar         1    LIG   0.0000
  25 O25          1.1526     3.4354     0.0095 O.3          1    LIG   0.0000
  26 H            3.8061    -1.2932     0.7737 H            1    LIG   0.0000
  27 H           -3.1222     1.8955    -0.4534 H            1    LIG   0.0000
  28 H           -2.1209     1.0949    -1.4649 H            1    LIG   0.0000
  29 H           -2.4432     0.4864     0.0158 H            1    LIG   0.0000
  30 H           -0.8780    -0.5221     0.0089 H            1    LIG   0.0000
  31 H            1.2156    -1.6909    -0.0168 H            1    LIG   0.0000
  32 H            4.6039     1.1738     0.4208 H            1    LIG   0.0000
  33 H            8.0362     2.1933     1.0141 H            1    LIG   0.0000
  34 H            6.4658     2.5173     0.7048 H            1    LIG   0.0000
  35 H            6.8640     1.3069     1.7261 H            1    LIG   0.0000
  36 H            9.1794     1.1652    -0.6577 H            1    LIG   0.0000
  37 H           10.4110     0.2282    -2.3814 H            1    LIG   0.0000
  38 H           10.0280    -1.3177    -2.7424 H            1    LIG   0.0000
  39 H            9.5687    -0.1085    -3.7393 H            1    LIG   0.0000
  40 H            7.3474    -1.5997    -3.1395 H            1    LIG   0.0000
  41 H            5.2303    -2.6315    -3.8235 H            1    LIG   0.0000
  42 H            3.1233    -4.0669    -4.5435 H            1    LIG   0.0000
  43 H            2.2837    -4.6247    -3.2587 H            1    LIG   0.0000
  44 H            1.7161    -3.3566    -4.1169 H            1    LIG   0.0000
  45 H            3.2584     1.9220    -0.0202 H            1    LIG   0.0000
  46 H            2.0086     3.9522     0.0036 H            1    LIG   0.0000
@<TRIPOS>BOND
   1        1        2 1
   2        2        3 1
   3        3        4 ar
   4        4        5 ar
   5        5        6 ar
   6        6        7 1
   7        7        8 1
   8        8        9 1
   9        9       10 ar
  10       10       11 1
  11       10       12 ar
  12       12       13 ar
  13       13       14 1
  14       13       15 ar
  15       15       16 ar
  16       16        9 ar
  17       16       17 1
  18       17       18 2
  19       18       19 1
  20       19       20 1
  21       19       21 2
  22       21       22 1
  23       22       17 1
  24       22        7 1
  25        6       23 ar
  26       23       24 ar
  27       24        3 ar
  28       24       25 1
  29        7       26 1
  30        1       27 1
  31        1       28 1
  32        1       29 1
  33        4       30 1
  34        5       31 1
  35        8       32 1
  36       11       33 1
  37       11       34 1
  38       11       35 1
  39       12       36 1
  40       14       37 1
  41       14       38 1
  42       14       39 1
  43       15       40 1
  44       18       41 1
  45       20       42 1
  46       20       43 1
  47       20       44 1
  48       23       45 1
  49       25       46 1

