@<TRIPOS>MOLECULE
*****
 46 49 0 0 0
SMALL
USER_CHARGES

@<TRIPOS>ATOM
      1 C1         -2.3553    1.2187    0.0328 C.3     1  LIG1        0.0000
      2 O2         -1.1948    2.0371    0.0243 O.3     1  LIG1        0.0000
      3 C3         -0.0178    1.3763    0.0090 C.ar    1  LIG1        0.0000
      4 C4         -0.0163   -0.0147    0.0026 C.ar    1  LIG1        0.0000
      5 C5          1.1996   -0.6910   -0.0125 C.ar    1  LIG1        0.0000
      6 C6          2.3933    0.0238   -0.0216 C.ar    1  LIG1        0.0000
      7 C7          3.7222   -0.7133   -0.0371 C.3     1  LIG1        0.0000
      8 N8          3.6548   -1.8811   -0.9270 N.pl3   1  LIG1        0.0000
      9 C9          4.5364   -2.9611   -0.7958 C.ar    1  LIG1        0.0000
     10 C10         4.8427   -3.8074   -1.8601 C.ar    1  LIG1        0.0000
     11 C11         4.2355   -3.6057   -3.2394 C.3     1  LIG1        0.0000
     12 C12         5.7214   -4.8735   -1.6921 C.ar    1  LIG1        0.0000
     13 C13         6.2961   -5.0894   -0.4440 C.ar    1  LIG1        0.0000
     14 C14         7.2569   -6.2530   -0.2558 C.3     1  LIG1        0.0000
     15 C15         5.9798   -4.2347    0.6097 C.ar    1  LIG1        0.0000
     16 C16         5.1021   -3.1637    0.4569 C.ar    1  LIG1        0.0000
     17 C17         4.7760   -2.2648    1.5501 C.2     1  LIG1        0.0000
     18 C18         5.0016   -2.3471    2.8933 C.2     1  LIG1        0.0000
     19 C19         4.4435   -1.1681    3.4379 C.2     1  LIG1        0.0000
     20 C20         4.4403   -0.7948    4.9117 C.3     1  LIG1        0.0000
     21 N21         3.9301   -0.4607    2.4591 N.2     1  LIG1        0.0000
     22 N22         4.1154   -1.1021    1.3274 N.pl3   1  LIG1        0.0000
     23 C23         2.3968    1.4145   -0.0145 C.ar    1  LIG1        0.0000
     24 C24         1.1790    2.0860    0.0007 C.ar    1  LIG1        0.0000
     25 O25         1.1526    3.4354    0.0095 O.3     1  LIG1        0.0000
     26 H           4.4180   -0.0905   -0.3948 H       1  LIG1        0.0000
     27 H          -3.1710    1.7971    0.0440 H       1  LIG1        0.0000
     28 H          -2.3646    0.6451   -0.7863 H       1  LIG1        0.0000
     29 H          -2.3475    0.6377    0.8466 H       1  LIG1        0.0000
     30 H          -0.8780   -0.5221    0.0089 H       1  LIG1        0.0000
     31 H           1.2156   -1.6909   -0.0168 H       1  LIG1        0.0000
     32 H           2.9602   -1.9050   -1.6460 H       1  LIG1        0.0000
     33 H           4.5776   -4.3109   -3.8605 H       1  LIG1        0.0000
     34 H           3.2395   -3.6704   -3.1779 H       1  LIG1        0.0000
     35 H           4.4901   -2.7033   -3.5870 H       1  LIG1        0.0000
     36 H           5.9370   -5.4772   -2.4596 H       1  LIG1        0.0000
     37 H           7.3560   -6.7465   -1.1199 H       1  LIG1        0.0000
     38 H           8.1487   -5.9055    0.0337 H       1  LIG1        0.0000
     39 H           6.8977   -6.8723    0.4424 H       1  LIG1        0.0000
     40 H           6.3962   -4.3952    1.5046 H       1  LIG1        0.0000
     41 H           5.4632   -3.0841    3.3870 H       1  LIG1        0.0000
     42 H           4.8979   -1.5114    5.4381 H       1  LIG1        0.0000
     43 H           4.9240    0.0714    5.0372 H       1  LIG1        0.0000
     44 H           3.4969   -0.6988    5.2292 H       1  LIG1        0.0000
     45 H           3.2584    1.9220   -0.0202 H       1  LIG1        0.0000
     46 H           2.0086    3.9522    0.0036 H       1  LIG1        0.0000
@<TRIPOS>BOND
     1     1     2    1
     2     2     3    1
     3     3     4   ar
     4     4     5   ar
     5     5     6   ar
     6     6     7    1
     7     7     8    1
     8     8     9    1
     9     9    10   ar
    10    10    11    1
    11    10    12   ar
    12    12    13   ar
    13    13    14    1
    14    13    15   ar
    15    15    16   ar
    16    16     9   ar
    17    16    17    1
    18    17    18    2
    19    18    19    1
    20    19    20    1
    21    19    21    2
    22    21    22    1
    23    22    17    1
    24    22     7    1
    25     6    23   ar
    26    23    24   ar
    27    24     3   ar
    28    24    25    1
    29     7    26    1
    30     1    27    1
    31     1    28    1
    32     1    29    1
    33     4    30    1
    34     5    31    1
    35     8    32    1
    36    11    33    1
    37    11    34    1
    38    11    35    1
    39    12    36    1
    40    14    37    1
    41    14    38    1
    42    14    39    1
    43    15    40    1
    44    18    41    1
    45    20    42    1
    46    20    43    1
    47    20    44    1
    48    23    45    1
    49    25    46    1
