@<TRIPOS>MOLECULE
*****
 46 49 0 0 0
SMALL
USER_CHARGES

@<TRIPOS>ATOM
      1 C1         -2.3553    1.2187    0.0328 C.3     1  LIG1        0.0000
      2 O2         -1.1948    2.0371    0.0243 O.3     1  LIG1        0.0000
      3 C3         -0.0178    1.3763    0.0090 C.ar    1  LIG1        0.0000
      4 C4         -0.0163   -0.0147    0.0026 C.ar    1  LIG1        0.0000
      5 C5          1.1996   -0.6910   -0.0125 C.ar    1  LIG1        0.0000
      6 C6          2.3933    0.0238   -0.0216 C.ar    1  LIG1        0.0000
      7 C7          3.7222   -0.7133   -0.0371 C.3     1  LIG1        0.0000
      8 N8          4.0701   -1.1797    1.3125 N.pl3   1  LIG1        0.0000
      9 C9          5.3904   -1.4735    1.6747 C.ar    1  LIG1        0.0000
     10 C10         5.7017   -2.3550    2.7085 C.ar    1  LIG1        0.0000
     11 C11         4.6180   -3.0586    3.5099 C.3     1  LIG1        0.0000
     12 C12         7.0263   -2.6209    3.0430 C.ar    1  LIG1        0.0000
     13 C13         8.0449   -1.9952    2.3319 C.ar    1  LIG1        0.0000
     14 C14         9.4935   -2.2828    2.6940 C.3     1  LIG1        0.0000
     15 C15         7.7173   -1.1167    1.3015 C.ar    1  LIG1        0.0000
     16 C16         6.3964   -0.8405    0.9552 C.ar    1  LIG1        0.0000
     17 C17         6.0502    0.0677   -0.1239 C.2     1  LIG1        0.0000
     18 C18         6.7954    0.9655   -0.8314 C.2     1  LIG1        0.0000
     19 C19         5.8952    1.5586   -1.7457 C.2     1  LIG1        0.0000
     20 C20         6.2516    2.6328   -2.7609 C.3     1  LIG1        0.0000
     21 N21         4.7088    1.0281   -1.5644 N.2     1  LIG1        0.0000
     22 N22         4.7822    0.1408   -0.5981 N.pl3   1  LIG1        0.0000
     23 C23         2.3968    1.4145   -0.0145 C.ar    1  LIG1        0.0000
     24 C24         1.1790    2.0860    0.0007 C.ar    1  LIG1        0.0000
     25 O25         1.1526    3.4354    0.0095 O.3     1  LIG1        0.0000
     26 H           3.6252   -1.5150   -0.6269 H       1  LIG1        0.0000
     27 H          -3.1710    1.7971    0.0440 H       1  LIG1        0.0000
     28 H          -2.3646    0.6451   -0.7863 H       1  LIG1        0.0000
     29 H          -2.3475    0.6377    0.8466 H       1  LIG1        0.0000
     30 H          -0.8780   -0.5221    0.0089 H       1  LIG1        0.0000
     31 H           1.2156   -1.6909   -0.0168 H       1  LIG1        0.0000
     32 H           3.3438   -1.2903    1.9909 H       1  LIG1        0.0000
     33 H           5.0416   -3.6445    4.2008 H       1  LIG1        0.0000
     34 H           4.0404   -2.3772    3.9594 H       1  LIG1        0.0000
     35 H           4.0593   -3.6169    2.8966 H       1  LIG1        0.0000
     36 H           7.2431   -3.2543    3.7859 H       1  LIG1        0.0000
     37 H           9.5246   -2.9332    3.4530 H       1  LIG1        0.0000
     38 H           9.9641   -2.6720    1.9020 H       1  LIG1        0.0000
     39 H           9.9445   -1.4324    2.9650 H       1  LIG1        0.0000
     40 H           8.4541   -0.6700    0.7940 H       1  LIG1        0.0000
     41 H           7.7702    1.1620   -0.7256 H       1  LIG1        0.0000
     42 H           7.2240    2.8537   -2.6850 H       1  LIG1        0.0000
     43 H           6.0569    2.2979   -3.6828 H       1  LIG1        0.0000
     44 H           5.7085    3.4533   -2.5827 H       1  LIG1        0.0000
     45 H           3.2584    1.9220   -0.0202 H       1  LIG1        0.0000
     46 H           2.0086    3.9522    0.0036 H       1  LIG1        0.0000
@<TRIPOS>BOND
     1     1     2    1
     2     2     3    1
     3     3     4   ar
     4     4     5   ar
     5     5     6   ar
     6     6     7    1
     7     7     8    1
     8     8     9    1
     9     9    10   ar
    10    10    11    1
    11    10    12   ar
    12    12    13   ar
    13    13    14    1
    14    13    15   ar
    15    15    16   ar
    16    16     9   ar
    17    16    17    1
    18    17    18    2
    19    18    19    1
    20    19    20    1
    21    19    21    2
    22    21    22    1
    23    22    17    1
    24    22     7    1
    25     6    23   ar
    26    23    24   ar
    27    24     3   ar
    28    24    25    1
    29     7    26    1
    30     1    27    1
    31     1    28    1
    32     1    29    1
    33     4    30    1
    34     5    31    1
    35     8    32    1
    36    11    33    1
    37    11    34    1
    38    11    35    1
    39    12    36    1
    40    14    37    1
    41    14    38    1
    42    14    39    1
    43    15    40    1
    44    18    41    1
    45    20    42    1
    46    20    43    1
    47    20    44    1
    48    23    45    1
    49    25    46    1
