@<TRIPOS>MOLECULE
*****
 46 49 0 0 0
SMALL
USER_CHARGES

@<TRIPOS>ATOM
      1 C1         -2.3553    1.2187    0.0328 C.3     1  LIG1        0.0000
      2 O2         -1.1948    2.0371    0.0243 O.3     1  LIG1        0.0000
      3 C3         -0.0178    1.3763    0.0090 C.ar    1  LIG1        0.0000
      4 C4         -0.0163   -0.0147    0.0026 C.ar    1  LIG1        0.0000
      5 C5          1.1996   -0.6910   -0.0125 C.ar    1  LIG1        0.0000
      6 C6          2.3933    0.0238   -0.0216 C.ar    1  LIG1        0.0000
      7 C7          3.7233   -0.7139   -0.0372 C.3     1  LIG1        0.0000
      8 N8          3.9704   -1.1297   -1.4252 N.pl3   1  LIG1        0.0000
      9 C9          3.2974   -2.2609   -1.8920 C.ar    1  LIG1        0.0000
     10 C10         2.9820   -2.3643   -3.2460 C.ar    1  LIG1        0.0000
     11 C11         3.4058   -1.3003   -4.2560 C.3     1  LIG1        0.0000
     12 C12         2.2486   -3.4549   -3.7082 C.ar    1  LIG1        0.0000
     13 C13         1.8443   -4.4314   -2.8045 C.ar    1  LIG1        0.0000
     14 C14         1.0150   -5.6127   -3.2933 C.3     1  LIG1        0.0000
     15 C15         2.2032   -4.2974   -1.4636 C.ar    1  LIG1        0.0000
     16 C16         2.9441   -3.2252   -0.9630 C.ar    1  LIG1        0.0000
     17 C17         3.3270   -3.0702    0.4372 C.2     1  LIG1        0.0000
     18 C18         3.3989   -3.9007    1.5145 C.2     1  LIG1        0.0000
     19 C19         3.8379   -3.1230    2.6117 C.2     1  LIG1        0.0000
     20 C20         4.0608   -3.6256    4.0294 C.3     1  LIG1        0.0000
     21 N21         4.0134   -1.8937    2.1877 N.2     1  LIG1        0.0000
     22 N22         3.7086   -1.8525    0.9006 N.pl3   1  LIG1        0.0000
     23 C23         2.3968    1.4145   -0.0145 C.ar    1  LIG1        0.0000
     24 C24         1.1790    2.0860    0.0007 C.ar    1  LIG1        0.0000
     25 O25         1.1526    3.4354    0.0095 O.3     1  LIG1        0.0000
     26 H           4.4448   -0.0796    0.2405 H       1  LIG1        0.0000
     27 H          -3.1710    1.7971    0.0440 H       1  LIG1        0.0000
     28 H          -2.3646    0.6451   -0.7863 H       1  LIG1        0.0000
     29 H          -2.3475    0.6377    0.8466 H       1  LIG1        0.0000
     30 H          -0.8780   -0.5221    0.0089 H       1  LIG1        0.0000
     31 H           1.2156   -1.6909   -0.0168 H       1  LIG1        0.0000
     32 H           4.5979   -0.6206   -2.0143 H       1  LIG1        0.0000
     33 H           3.0846   -1.5587   -5.1670 H       1  LIG1        0.0000
     34 H           3.0074   -0.4197   -3.9994 H       1  LIG1        0.0000
     35 H           4.4030   -1.2256   -4.2629 H       1  LIG1        0.0000
     36 H           2.0159   -3.5345   -4.6775 H       1  LIG1        0.0000
     37 H           0.8638   -5.5289   -4.2783 H       1  LIG1        0.0000
     38 H           1.5030   -6.4644   -3.1023 H       1  LIG1        0.0000
     39 H           0.1340   -5.6200   -2.8203 H       1  LIG1        0.0000
     40 H           1.9134   -5.0097   -0.8243 H       1  LIG1        0.0000
     41 H           3.1821   -4.8768    1.5274 H       1  LIG1        0.0000
     42 H           3.8519   -4.6025    4.0734 H       1  LIG1        0.0000
     43 H           5.0148   -3.4766    4.2897 H       1  LIG1        0.0000
     44 H           3.4624   -3.1281    4.6574 H       1  LIG1        0.0000
     45 H           3.2584    1.9220   -0.0202 H       1  LIG1        0.0000
     46 H           2.0086    3.9522    0.0036 H       1  LIG1        0.0000
@<TRIPOS>BOND
     1     1     2    1
     2     2     3    1
     3     3     4   ar
     4     4     5   ar
     5     5     6   ar
     6     6     7    1
     7     7     8    1
     8     8     9    1
     9     9    10   ar
    10    10    11    1
    11    10    12   ar
    12    12    13   ar
    13    13    14    1
    14    13    15   ar
    15    15    16   ar
    16    16     9   ar
    17    16    17    1
    18    17    18    2
    19    18    19    1
    20    19    20    1
    21    19    21    2
    22    21    22    1
    23    22    17    1
    24    22     7    1
    25     6    23   ar
    26    23    24   ar
    27    24     3   ar
    28    24    25    1
    29     7    26    1
    30     1    27    1
    31     1    28    1
    32     1    29    1
    33     4    30    1
    34     5    31    1
    35     8    32    1
    36    11    33    1
    37    11    34    1
    38    11    35    1
    39    12    36    1
    40    14    37    1
    41    14    38    1
    42    14    39    1
    43    15    40    1
    44    18    41    1
    45    20    42    1
    46    20    43    1
    47    20    44    1
    48    23    45    1
    49    25    46    1
