@<TRIPOS>MOLECULE
*****
 46 49 0 0 0
SMALL
USER_CHARGES

@<TRIPOS>ATOM
      1 C1         -2.3553    1.2187    0.0328 C.3     1  LIG1        0.0000
      2 O2         -1.1948    2.0371    0.0243 O.3     1  LIG1        0.0000
      3 C3         -0.0178    1.3763    0.0090 C.ar    1  LIG1        0.0000
      4 C4         -0.0163   -0.0147    0.0026 C.ar    1  LIG1        0.0000
      5 C5          1.1996   -0.6910   -0.0125 C.ar    1  LIG1        0.0000
      6 C6          2.3933    0.0238   -0.0216 C.ar    1  LIG1        0.0000
      7 C7          3.7233   -0.7139   -0.0372 C.3     1  LIG1        0.0000
      8 N8          3.9949   -1.1438    1.3419 N.pl3   1  LIG1        0.0000
      9 C9          4.4945   -0.1898    2.2313 C.ar    1  LIG1        0.0000
     10 C10         4.2074   -0.2995    3.5911 C.ar    1  LIG1        0.0000
     11 C11         3.4086   -1.4728    4.1543 C.3     1  LIG1        0.0000
     12 C12         4.6411    0.6858    4.4754 C.ar    1  LIG1        0.0000
     13 C13         5.3624    1.7680    3.9831 C.ar    1  LIG1        0.0000
     14 C14         5.8150    2.8675    4.9362 C.3     1  LIG1        0.0000
     15 C15         5.6458    1.8232    2.6187 C.ar    1  LIG1        0.0000
     16 C16         5.2370    0.8526    1.7023 C.ar    1  LIG1        0.0000
     17 C17         5.5251    0.8962    0.2718 C.2     1  LIG1        0.0000
     18 C18         6.4103    1.5713   -0.5131 C.2     1  LIG1        0.0000
     19 C19         6.1693    1.1745   -1.8494 C.2     1  LIG1        0.0000
     20 C20         6.9162    1.6725   -3.0767 C.3     1  LIG1        0.0000
     21 N21         5.1861    0.3056   -1.8390 N.2     1  LIG1        0.0000
     22 N22         4.7952    0.1380   -0.5859 N.pl3   1  LIG1        0.0000
     23 C23         2.3968    1.4145   -0.0145 C.ar    1  LIG1        0.0000
     24 C24         1.1790    2.0860    0.0007 C.ar    1  LIG1        0.0000
     25 O25         1.1526    3.4354    0.0095 O.3     1  LIG1        0.0000
     26 H           3.6326   -1.5258   -0.6138 H       1  LIG1        0.0000
     27 H          -3.1710    1.7971    0.0440 H       1  LIG1        0.0000
     28 H          -2.3646    0.6451   -0.7863 H       1  LIG1        0.0000
     29 H          -2.3475    0.6377    0.8466 H       1  LIG1        0.0000
     30 H          -0.8780   -0.5221    0.0089 H       1  LIG1        0.0000
     31 H           1.2156   -1.6909   -0.0168 H       1  LIG1        0.0000
     32 H           3.8280   -2.0858    1.6331 H       1  LIG1        0.0000
     33 H           3.3122   -1.3659    5.1439 H       1  LIG1        0.0000
     34 H           2.5027   -1.4929    3.7314 H       1  LIG1        0.0000
     35 H           3.8879   -2.3279    3.9565 H       1  LIG1        0.0000
     36 H           4.4364    0.6157    5.4517 H       1  LIG1        0.0000
     37 H           5.5173    2.6468    5.8650 H       1  LIG1        0.0000
     38 H           6.8122    2.9384    4.9138 H       1  LIG1        0.0000
     39 H           5.4124    3.7387    4.6553 H       1  LIG1        0.0000
     40 H           6.1718    2.6022    2.2774 H       1  LIG1        0.0000
     41 H           7.1008    2.2247   -0.2029 H       1  LIG1        0.0000
     42 H           7.6164    2.3295   -2.7970 H       1  LIG1        0.0000
     43 H           7.3503    0.8994   -3.5392 H       1  LIG1        0.0000
     44 H           6.2733    2.1161   -3.7010 H       1  LIG1        0.0000
     45 H           3.2584    1.9220   -0.0202 H       1  LIG1        0.0000
     46 H           2.0086    3.9522    0.0036 H       1  LIG1        0.0000
@<TRIPOS>BOND
     1     1     2    1
     2     2     3    1
     3     3     4   ar
     4     4     5   ar
     5     5     6   ar
     6     6     7    1
     7     7     8    1
     8     8     9    1
     9     9    10   ar
    10    10    11    1
    11    10    12   ar
    12    12    13   ar
    13    13    14    1
    14    13    15   ar
    15    15    16   ar
    16    16     9   ar
    17    16    17    1
    18    17    18    2
    19    18    19    1
    20    19    20    1
    21    19    21    2
    22    21    22    1
    23    22    17    1
    24    22     7    1
    25     6    23   ar
    26    23    24   ar
    27    24     3   ar
    28    24    25    1
    29     7    26    1
    30     1    27    1
    31     1    28    1
    32     1    29    1
    33     4    30    1
    34     5    31    1
    35     8    32    1
    36    11    33    1
    37    11    34    1
    38    11    35    1
    39    12    36    1
    40    14    37    1
    41    14    38    1
    42    14    39    1
    43    15    40    1
    44    18    41    1
    45    20    42    1
    46    20    43    1
    47    20    44    1
    48    23    45    1
    49    25    46    1
