@<TRIPOS>MOLECULE
*****
 46 49 0 0 0
SMALL
USER_CHARGES

@<TRIPOS>ATOM
      1 C1         -2.3553    1.2187    0.0328 C.3     1  LIG1        0.0000
      2 O2         -1.1948    2.0371    0.0243 O.3     1  LIG1        0.0000
      3 C3         -0.0178    1.3763    0.0090 C.ar    1  LIG1        0.0000
      4 C4         -0.0163   -0.0147    0.0026 C.ar    1  LIG1        0.0000
      5 C5          1.1996   -0.6910   -0.0125 C.ar    1  LIG1        0.0000
      6 C6          2.3933    0.0238   -0.0216 C.ar    1  LIG1        0.0000
      7 C7          3.7222   -0.7133   -0.0371 C.3     1  LIG1        0.0000
      8 N8          3.5065   -2.1671   -0.0426 N.pl3   1  LIG1        0.0000
      9 C9          4.4944   -3.0617    0.3869 C.ar    1  LIG1        0.0000
     10 C10         4.5438   -4.3844   -0.0498 C.ar    1  LIG1        0.0000
     11 C11         3.5216   -4.9394   -1.0290 C.3     1  LIG1        0.0000
     12 C12         5.5390   -5.2465    0.4012 C.ar    1  LIG1        0.0000
     13 C13         6.4914   -4.7741    1.2980 C.ar    1  LIG1        0.0000
     14 C14         7.5806   -5.7125    1.7933 C.3     1  LIG1        0.0000
     15 C15         6.4284   -3.4495    1.7251 C.ar    1  LIG1        0.0000
     16 C16         5.4383   -2.5748    1.2827 C.ar    1  LIG1        0.0000
     17 C17         5.3736   -1.1909    1.7183 C.2     1  LIG1        0.0000
     18 C18         6.0115   -0.5227    2.7227 C.2     1  LIG1        0.0000
     19 C19         5.5280    0.8037    2.6537 C.2     1  LIG1        0.0000
     20 C20         5.9419    1.9407    3.5744 C.3     1  LIG1        0.0000
     21 N21         4.6650    0.8808    1.6683 N.2     1  LIG1        0.0000
     22 N22         4.5574   -0.3004    1.1028 N.pl3   1  LIG1        0.0000
     23 C23         2.3968    1.4145   -0.0145 C.ar    1  LIG1        0.0000
     24 C24         1.1790    2.0860    0.0007 C.ar    1  LIG1        0.0000
     25 O25         1.1526    3.4354    0.0095 O.3     1  LIG1        0.0000
     26 H           4.2031   -0.4679   -0.8789 H       1  LIG1        0.0000
     27 H          -3.1710    1.7971    0.0440 H       1  LIG1        0.0000
     28 H          -2.3646    0.6451   -0.7863 H       1  LIG1        0.0000
     29 H          -2.3475    0.6377    0.8466 H       1  LIG1        0.0000
     30 H          -0.8780   -0.5221    0.0089 H       1  LIG1        0.0000
     31 H           1.2156   -1.6909   -0.0168 H       1  LIG1        0.0000
     32 H           2.6301   -2.5274   -0.3620 H       1  LIG1        0.0000
     33 H           3.7272   -5.8999   -1.2166 H       1  LIG1        0.0000
     34 H           2.6064   -4.8656   -0.6329 H       1  LIG1        0.0000
     35 H           3.5591   -4.4178   -1.8813 H       1  LIG1        0.0000
     36 H           5.5689   -6.1945    0.0842 H       1  LIG1        0.0000
     37 H           7.4589   -6.6136    1.3770 H       1  LIG1        0.0000
     38 H           8.4763   -5.3467    1.5402 H       1  LIG1        0.0000
     39 H           7.5230   -5.7944    2.7883 H       1  LIG1        0.0000
     40 H           7.1160   -3.1158    2.3699 H       1  LIG1        0.0000
     41 H           6.6786   -0.8926    3.3694 H       1  LIG1        0.0000
     42 H           6.6131    1.6063    4.2360 H       1  LIG1        0.0000
     43 H           6.3462    2.6778    3.0329 H       1  LIG1        0.0000
     44 H           5.1386    2.2857    4.0598 H       1  LIG1        0.0000
     45 H           3.2584    1.9220   -0.0202 H       1  LIG1        0.0000
     46 H           2.0086    3.9522    0.0036 H       1  LIG1        0.0000
@<TRIPOS>BOND
     1     1     2    1
     2     2     3    1
     3     3     4   ar
     4     4     5   ar
     5     5     6   ar
     6     6     7    1
     7     7     8    1
     8     8     9    1
     9     9    10   ar
    10    10    11    1
    11    10    12   ar
    12    12    13   ar
    13    13    14    1
    14    13    15   ar
    15    15    16   ar
    16    16     9   ar
    17    16    17    1
    18    17    18    2
    19    18    19    1
    20    19    20    1
    21    19    21    2
    22    21    22    1
    23    22    17    1
    24    22     7    1
    25     6    23   ar
    26    23    24   ar
    27    24     3   ar
    28    24    25    1
    29     7    26    1
    30     1    27    1
    31     1    28    1
    32     1    29    1
    33     4    30    1
    34     5    31    1
    35     8    32    1
    36    11    33    1
    37    11    34    1
    38    11    35    1
    39    12    36    1
    40    14    37    1
    41    14    38    1
    42    14    39    1
    43    15    40    1
    44    18    41    1
    45    20    42    1
    46    20    43    1
    47    20    44    1
    48    23    45    1
    49    25    46    1
