@<TRIPOS>MOLECULE
*****
 46 49 0 0 0
SMALL
USER_CHARGES

@<TRIPOS>ATOM
      1 C1         -2.3553    1.2187    0.0328 C.3     1  LIG1        0.0000
      2 O2         -1.1948    2.0371    0.0243 O.3     1  LIG1        0.0000
      3 C3         -0.0178    1.3763    0.0090 C.ar    1  LIG1        0.0000
      4 C4         -0.0163   -0.0147    0.0026 C.ar    1  LIG1        0.0000
      5 C5          1.1996   -0.6910   -0.0125 C.ar    1  LIG1        0.0000
      6 C6          2.3933    0.0238   -0.0216 C.ar    1  LIG1        0.0000
      7 C7          3.7233   -0.7139   -0.0372 C.3     1  LIG1        0.0000
      8 N8          4.5486   -0.1391    1.0348 N.pl3   1  LIG1        0.0000
      9 C9          5.1817    1.0798    0.7819 C.ar    1  LIG1        0.0000
     10 C10         5.4371    1.9546    1.8369 C.ar    1  LIG1        0.0000
     11 C11         5.0999    1.5949    3.2821 C.3     1  LIG1        0.0000
     12 C12         6.0031    3.2024    1.5845 C.ar    1  LIG1        0.0000
     13 C13         6.3099    3.5547    0.2748 C.ar    1  LIG1        0.0000
     14 C14         6.9004    4.9289   -0.0166 C.3     1  LIG1        0.0000
     15 C15         6.0582    2.6377   -0.7453 C.ar    1  LIG1        0.0000
     16 C16         5.5009    1.3755   -0.5328 C.ar    1  LIG1        0.0000
     17 C17         5.2309    0.4050   -1.5894 C.2     1  LIG1        0.0000
     18 C18         5.6449    0.2414   -2.8767 C.2     1  LIG1        0.0000
     19 C19         4.9952   -0.9099   -3.3804 C.2     1  LIG1        0.0000
     20 C20         5.1480   -1.4796   -4.7819 C.3     1  LIG1        0.0000
     21 N21         4.2370   -1.3933   -2.4247 N.2     1  LIG1        0.0000
     22 N22         4.3672   -0.6172   -1.3608 N.pl3   1  LIG1        0.0000
     23 C23         2.3968    1.4145   -0.0145 C.ar    1  LIG1        0.0000
     24 C24         1.1790    2.0860    0.0007 C.ar    1  LIG1        0.0000
     25 O25         1.1526    3.4354    0.0095 O.3     1  LIG1        0.0000
     26 H           3.5572   -1.6783    0.1686 H       1  LIG1        0.0000
     27 H          -3.1710    1.7971    0.0440 H       1  LIG1        0.0000
     28 H          -2.3646    0.6451   -0.7863 H       1  LIG1        0.0000
     29 H          -2.3475    0.6377    0.8466 H       1  LIG1        0.0000
     30 H          -0.8780   -0.5221    0.0089 H       1  LIG1        0.0000
     31 H           1.2156   -1.6909   -0.0168 H       1  LIG1        0.0000
     32 H           4.6530   -0.6043    1.9138 H       1  LIG1        0.0000
     33 H           5.3591    2.3510    3.8830 H       1  LIG1        0.0000
     34 H           4.1175    1.4264    3.3632 H       1  LIG1        0.0000
     35 H           5.6023    0.7717    3.5466 H       1  LIG1        0.0000
     36 H           6.1864    3.8365    2.3357 H       1  LIG1        0.0000
     37 H           7.0050    5.4351    0.8394 H       1  LIG1        0.0000
     38 H           7.7942    4.8222   -0.4521 H       1  LIG1        0.0000
     39 H           6.2894    5.4313   -0.6284 H       1  LIG1        0.0000
     40 H           6.2901    2.8991   -1.6823 H       1  LIG1        0.0000
     41 H           6.2875    0.8254   -3.3727 H       1  LIG1        0.0000
     42 H           5.7875   -0.9148   -5.3034 H       1  LIG1        0.0000
     43 H           5.4984   -2.4145   -4.7253 H       1  LIG1        0.0000
     44 H           4.2584   -1.4841   -5.2386 H       1  LIG1        0.0000
     45 H           3.2584    1.9220   -0.0202 H       1  LIG1        0.0000
     46 H           2.0086    3.9522    0.0036 H       1  LIG1        0.0000
@<TRIPOS>BOND
     1     1     2    1
     2     2     3    1
     3     3     4   ar
     4     4     5   ar
     5     5     6   ar
     6     6     7    1
     7     7     8    1
     8     8     9    1
     9     9    10   ar
    10    10    11    1
    11    10    12   ar
    12    12    13   ar
    13    13    14    1
    14    13    15   ar
    15    15    16   ar
    16    16     9   ar
    17    16    17    1
    18    17    18    2
    19    18    19    1
    20    19    20    1
    21    19    21    2
    22    21    22    1
    23    22    17    1
    24    22     7    1
    25     6    23   ar
    26    23    24   ar
    27    24     3   ar
    28    24    25    1
    29     7    26    1
    30     1    27    1
    31     1    28    1
    32     1    29    1
    33     4    30    1
    34     5    31    1
    35     8    32    1
    36    11    33    1
    37    11    34    1
    38    11    35    1
    39    12    36    1
    40    14    37    1
    41    14    38    1
    42    14    39    1
    43    15    40    1
    44    18    41    1
    45    20    42    1
    46    20    43    1
    47    20    44    1
    48    23    45    1
    49    25    46    1
