@<TRIPOS>MOLECULE
*****
 46 49 0 0 0
SMALL
USER_CHARGES

@<TRIPOS>ATOM
      1 C1         -2.3553    1.2187    0.0328 C.3     1  LIG1        0.0000
      2 O2         -1.1948    2.0371    0.0243 O.3     1  LIG1        0.0000
      3 C3         -0.0178    1.3763    0.0090 C.ar    1  LIG1        0.0000
      4 C4         -0.0163   -0.0147    0.0026 C.ar    1  LIG1        0.0000
      5 C5          1.1996   -0.6910   -0.0125 C.ar    1  LIG1        0.0000
      6 C6          2.3933    0.0238   -0.0216 C.ar    1  LIG1        0.0000
      7 C7          3.7233   -0.7139   -0.0372 C.3     1  LIG1        0.0000
      8 N8          4.5295   -0.1281   -1.1176 N.pl3   1  LIG1        0.0000
      9 C9          4.2506   -0.5313   -2.4254 C.ar    1  LIG1        0.0000
     10 C10         4.4839    0.3484   -3.4814 C.ar    1  LIG1        0.0000
     11 C11         5.0977    1.7291   -3.2599 C.3     1  LIG1        0.0000
     12 C12         4.1420   -0.0186   -4.7812 C.ar    1  LIG1        0.0000
     13 C13         3.5734   -1.2676   -5.0050 C.ar    1  LIG1        0.0000
     14 C14         3.1667   -1.6675   -6.4181 C.3     1  LIG1        0.0000
     15 C15         3.3803   -2.1232   -3.9208 C.ar    1  LIG1        0.0000
     16 C16         3.7173   -1.7965   -2.6060 C.ar    1  LIG1        0.0000
     17 C17         3.5211   -2.6803   -1.4608 C.2     1  LIG1        0.0000
     18 C18         3.3025   -4.0151   -1.2995 C.2     1  LIG1        0.0000
     19 C19         3.1817   -4.2528    0.0898 C.2     1  LIG1        0.0000
     20 C20         2.9268   -5.6008    0.7457 C.3     1  LIG1        0.0000
     21 N21         3.3248   -3.1040    0.7075 N.2     1  LIG1        0.0000
     22 N22         3.5220   -2.1656   -0.2045 N.pl3   1  LIG1        0.0000
     23 C23         2.3968    1.4145   -0.0145 C.ar    1  LIG1        0.0000
     24 C24         1.1790    2.0860    0.0007 C.ar    1  LIG1        0.0000
     25 O25         1.1526    3.4354    0.0095 O.3     1  LIG1        0.0000
     26 H           4.1890   -0.5533    0.8331 H       1  LIG1        0.0000
     27 H          -3.1710    1.7971    0.0440 H       1  LIG1        0.0000
     28 H          -2.3646    0.6451   -0.7863 H       1  LIG1        0.0000
     29 H          -2.3475    0.6377    0.8466 H       1  LIG1        0.0000
     30 H          -0.8780   -0.5221    0.0089 H       1  LIG1        0.0000
     31 H           1.2156   -1.6909   -0.0168 H       1  LIG1        0.0000
     32 H           5.2519    0.5354   -0.9233 H       1  LIG1        0.0000
     33 H           5.1820    2.2011   -4.1375 H       1  LIG1        0.0000
     34 H           4.5102    2.2612   -2.6503 H       1  LIG1        0.0000
     35 H           6.0030    1.6290   -2.8469 H       1  LIG1        0.0000
     36 H           4.3035    0.6083   -5.5434 H       1  LIG1        0.0000
     37 H           3.3852   -0.9245   -7.0507 H       1  LIG1        0.0000
     38 H           3.6644   -2.4919   -6.6876 H       1  LIG1        0.0000
     39 H           2.1835   -1.8484   -6.4434 H       1  LIG1        0.0000
     40 H           2.9777   -3.0219   -4.0950 H       1  LIG1        0.0000
     41 H           3.2394   -4.6986   -2.0267 H       1  LIG1        0.0000
     42 H           2.8593   -6.3070    0.0409 H       1  LIG1        0.0000
     43 H           3.6817   -5.8184    1.3644 H       1  LIG1        0.0000
     44 H           2.0719   -5.5634    1.2630 H       1  LIG1        0.0000
     45 H           3.2584    1.9220   -0.0202 H       1  LIG1        0.0000
     46 H           2.0086    3.9522    0.0036 H       1  LIG1        0.0000
@<TRIPOS>BOND
     1     1     2    1
     2     2     3    1
     3     3     4   ar
     4     4     5   ar
     5     5     6   ar
     6     6     7    1
     7     7     8    1
     8     8     9    1
     9     9    10   ar
    10    10    11    1
    11    10    12   ar
    12    12    13   ar
    13    13    14    1
    14    13    15   ar
    15    15    16   ar
    16    16     9   ar
    17    16    17    1
    18    17    18    2
    19    18    19    1
    20    19    20    1
    21    19    21    2
    22    21    22    1
    23    22    17    1
    24    22     7    1
    25     6    23   ar
    26    23    24   ar
    27    24     3   ar
    28    24    25    1
    29     7    26    1
    30     1    27    1
    31     1    28    1
    32     1    29    1
    33     4    30    1
    34     5    31    1
    35     8    32    1
    36    11    33    1
    37    11    34    1
    38    11    35    1
    39    12    36    1
    40    14    37    1
    41    14    38    1
    42    14    39    1
    43    15    40    1
    44    18    41    1
    45    20    42    1
    46    20    43    1
    47    20    44    1
    48    23    45    1
    49    25    46    1
