@<TRIPOS>MOLECULE
*****
 46 49 0 0 0
SMALL
USER_CHARGES

@<TRIPOS>ATOM
      1 C1         -2.3553    1.2187    0.0328 C.3     1  LIG1        0.0000
      2 O2         -1.1948    2.0371    0.0243 O.3     1  LIG1        0.0000
      3 C3         -0.0178    1.3763    0.0090 C.ar    1  LIG1        0.0000
      4 C4         -0.0163   -0.0147    0.0026 C.ar    1  LIG1        0.0000
      5 C5          1.1996   -0.6910   -0.0125 C.ar    1  LIG1        0.0000
      6 C6          2.3933    0.0238   -0.0216 C.ar    1  LIG1        0.0000
      7 C7          3.7233   -0.7139   -0.0372 C.3     1  LIG1        0.0000
      8 N8          3.4195   -2.1520   -0.0418 N.pl3   1  LIG1        0.0000
      9 C9          3.0658   -2.7432    1.1731 C.ar    1  LIG1        0.0000
     10 C10         2.2123   -3.8455    1.1794 C.ar    1  LIG1        0.0000
     11 C11         1.6951   -4.4720   -0.1136 C.3     1  LIG1        0.0000
     12 C12         1.7974   -4.3971    2.3896 C.ar    1  LIG1        0.0000
     13 C13         2.2488   -3.8370    3.5796 C.ar    1  LIG1        0.0000
     14 C14         1.7768   -4.4124    4.9093 C.3     1  LIG1        0.0000
     15 C15         3.1201   -2.7495    3.5236 C.ar    1  LIG1        0.0000
     16 C16         3.5657   -2.1740    2.3323 C.ar    1  LIG1        0.0000
     17 C17         4.4768   -1.0358    2.2570 C.2     1  LIG1        0.0000
     18 C18         5.3407   -0.4337    3.1210 C.2     1  LIG1        0.0000
     19 C19         5.9298    0.6524    2.4322 C.2     1  LIG1        0.0000
     20 C20         6.9573    1.6182    3.0011 C.3     1  LIG1        0.0000
     21 N21         5.4286    0.6782    1.2198 N.2     1  LIG1        0.0000
     22 N22         4.5629   -0.3165    1.1087 N.pl3   1  LIG1        0.0000
     23 C23         2.3968    1.4145   -0.0145 C.ar    1  LIG1        0.0000
     24 C24         1.1790    2.0860    0.0007 C.ar    1  LIG1        0.0000
     25 O25         1.1526    3.4354    0.0095 O.3     1  LIG1        0.0000
     26 H           4.2063   -0.4858   -0.8825 H       1  LIG1        0.0000
     27 H          -3.1710    1.7971    0.0440 H       1  LIG1        0.0000
     28 H          -2.3646    0.6451   -0.7863 H       1  LIG1        0.0000
     29 H          -2.3475    0.6377    0.8466 H       1  LIG1        0.0000
     30 H          -0.8780   -0.5221    0.0089 H       1  LIG1        0.0000
     31 H           1.2156   -1.6909   -0.0168 H       1  LIG1        0.0000
     32 H           3.4645   -2.6880   -0.8848 H       1  LIG1        0.0000
     33 H           1.1010   -5.2461    0.1055 H       1  LIG1        0.0000
     34 H           1.1773   -3.7903   -0.6305 H       1  LIG1        0.0000
     35 H           2.4682   -4.7900   -0.6624 H       1  LIG1        0.0000
     36 H           1.1828   -5.1859    2.4022 H       1  LIG1        0.0000
     37 H           1.1616   -5.1824    4.7398 H       1  LIG1        0.0000
     38 H           2.5668   -4.7267    5.4358 H       1  LIG1        0.0000
     39 H           1.2922   -3.7059    5.4251 H       1  LIG1        0.0000
     40 H           3.4441   -2.3600    4.3857 H       1  LIG1        0.0000
     41 H           5.5241   -0.7081    4.0650 H       1  LIG1        0.0000
     42 H           7.1620    1.3679    3.9474 H       1  LIG1        0.0000
     43 H           7.7944    1.5735    2.4560 H       1  LIG1        0.0000
     44 H           6.5912    2.5484    2.9741 H       1  LIG1        0.0000
     45 H           3.2584    1.9220   -0.0202 H       1  LIG1        0.0000
     46 H           2.0086    3.9522    0.0036 H       1  LIG1        0.0000
@<TRIPOS>BOND
     1     1     2    1
     2     2     3    1
     3     3     4   ar
     4     4     5   ar
     5     5     6   ar
     6     6     7    1
     7     7     8    1
     8     8     9    1
     9     9    10   ar
    10    10    11    1
    11    10    12   ar
    12    12    13   ar
    13    13    14    1
    14    13    15   ar
    15    15    16   ar
    16    16     9   ar
    17    16    17    1
    18    17    18    2
    19    18    19    1
    20    19    20    1
    21    19    21    2
    22    21    22    1
    23    22    17    1
    24    22     7    1
    25     6    23   ar
    26    23    24   ar
    27    24     3   ar
    28    24    25    1
    29     7    26    1
    30     1    27    1
    31     1    28    1
    32     1    29    1
    33     4    30    1
    34     5    31    1
    35     8    32    1
    36    11    33    1
    37    11    34    1
    38    11    35    1
    39    12    36    1
    40    14    37    1
    41    14    38    1
    42    14    39    1
    43    15    40    1
    44    18    41    1
    45    20    42    1
    46    20    43    1
    47    20    44    1
    48    23    45    1
    49    25    46    1
