@<TRIPOS>MOLECULE
*****
 46 49 0 0 0
SMALL
USER_CHARGES

@<TRIPOS>ATOM
      1 C1         -2.3553    1.2187    0.0328 C.3     1  LIG1        0.0000
      2 O2         -1.1948    2.0371    0.0243 O.3     1  LIG1        0.0000
      3 C3         -0.0178    1.3763    0.0090 C.ar    1  LIG1        0.0000
      4 C4         -0.0163   -0.0147    0.0026 C.ar    1  LIG1        0.0000
      5 C5          1.1996   -0.6910   -0.0125 C.ar    1  LIG1        0.0000
      6 C6          2.3933    0.0238   -0.0216 C.ar    1  LIG1        0.0000
      7 C7          3.7222   -0.7133   -0.0371 C.3     1  LIG1        0.0000
      8 N8          4.0460   -1.1659   -1.3974 N.pl3   1  LIG1        0.0000
      9 C9          4.9379   -2.2195   -1.6323 C.ar    1  LIG1        0.0000
     10 C10         5.6398   -2.3498   -2.8295 C.ar    1  LIG1        0.0000
     11 C11         5.4803   -1.3463   -3.9605 C.3     1  LIG1        0.0000
     12 C12         6.5161   -3.4124   -3.0291 C.ar    1  LIG1        0.0000
     13 C13         6.6875   -4.3506   -2.0166 C.ar    1  LIG1        0.0000
     14 C14         7.6441   -5.5132   -2.2303 C.3     1  LIG1        0.0000
     15 C15         5.9787   -4.2064   -0.8260 C.ar    1  LIG1        0.0000
     16 C16         5.0980   -3.1484   -0.6115 C.ar    1  LIG1        0.0000
     17 C17         4.3636   -2.9890    0.6312 C.2     1  LIG1        0.0000
     18 C18         4.1628   -3.8339    1.6838 C.2     1  LIG1        0.0000
     19 C19         3.3553   -3.1122    2.5921 C.2     1  LIG1        0.0000
     20 C20         2.8551   -3.6321    3.9305 C.3     1  LIG1        0.0000
     21 N21         3.1118   -1.9281    2.0818 N.2     1  LIG1        0.0000
     22 N22         3.7015   -1.8395    0.9110 N.pl3   1  LIG1        0.0000
     23 C23         2.3968    1.4145   -0.0145 C.ar    1  LIG1        0.0000
     24 C24         1.1790    2.0860    0.0007 C.ar    1  LIG1        0.0000
     25 O25         1.1526    3.4354    0.0095 O.3     1  LIG1        0.0000
     26 H           4.4343   -0.0749    0.2551 H       1  LIG1        0.0000
     27 H          -3.1710    1.7971    0.0440 H       1  LIG1        0.0000
     28 H          -2.3646    0.6451   -0.7863 H       1  LIG1        0.0000
     29 H          -2.3475    0.6377    0.8466 H       1  LIG1        0.0000
     30 H          -0.8780   -0.5221    0.0089 H       1  LIG1        0.0000
     31 H           1.2156   -1.6909   -0.0168 H       1  LIG1        0.0000
     32 H           3.6176   -0.7087   -2.1768 H       1  LIG1        0.0000
     33 H           6.0638   -1.6131   -4.7275 H       1  LIG1        0.0000
     34 H           4.5258   -1.3286   -4.2582 H       1  LIG1        0.0000
     35 H           5.7463   -0.4373   -3.6396 H       1  LIG1        0.0000
     36 H           7.0167   -3.5004   -3.8903 H       1  LIG1        0.0000
     37 H           8.0547   -5.4442   -3.1395 H       1  LIG1        0.0000
     38 H           8.3638   -5.4846   -1.5366 H       1  LIG1        0.0000
     39 H           7.1430   -6.3753   -2.1554 H       1  LIG1        0.0000
     40 H           6.1062   -4.8841   -0.1018 H       1  LIG1        0.0000
     41 H           4.5123   -4.7648    1.7898 H       1  LIG1        0.0000
     42 H           3.1886   -4.5642    4.0718 H       1  LIG1        0.0000
     43 H           3.1925   -3.0425    4.6643 H       1  LIG1        0.0000
     44 H           1.8551   -3.6316    3.9356 H       1  LIG1        0.0000
     45 H           3.2584    1.9220   -0.0202 H       1  LIG1        0.0000
     46 H           2.0086    3.9522    0.0036 H       1  LIG1        0.0000
@<TRIPOS>BOND
     1     1     2    1
     2     2     3    1
     3     3     4   ar
     4     4     5   ar
     5     5     6   ar
     6     6     7    1
     7     7     8    1
     8     8     9    1
     9     9    10   ar
    10    10    11    1
    11    10    12   ar
    12    12    13   ar
    13    13    14    1
    14    13    15   ar
    15    15    16   ar
    16    16     9   ar
    17    16    17    1
    18    17    18    2
    19    18    19    1
    20    19    20    1
    21    19    21    2
    22    21    22    1
    23    22    17    1
    24    22     7    1
    25     6    23   ar
    26    23    24   ar
    27    24     3   ar
    28    24    25    1
    29     7    26    1
    30     1    27    1
    31     1    28    1
    32     1    29    1
    33     4    30    1
    34     5    31    1
    35     8    32    1
    36    11    33    1
    37    11    34    1
    38    11    35    1
    39    12    36    1
    40    14    37    1
    41    14    38    1
    42    14    39    1
    43    15    40    1
    44    18    41    1
    45    20    42    1
    46    20    43    1
    47    20    44    1
    48    23    45    1
    49    25    46    1
