@<TRIPOS>MOLECULE
*****
 46 49 0 0 0
SMALL
USER_CHARGES

@<TRIPOS>ATOM
      1 C1         -2.3553    1.2187    0.0328 C.3     1  LIG1        0.0000
      2 O2         -1.1948    2.0371    0.0243 O.3     1  LIG1        0.0000
      3 C3         -0.0178    1.3763    0.0090 C.ar    1  LIG1        0.0000
      4 C4         -0.0163   -0.0147    0.0026 C.ar    1  LIG1        0.0000
      5 C5          1.1996   -0.6910   -0.0125 C.ar    1  LIG1        0.0000
      6 C6          2.3933    0.0238   -0.0216 C.ar    1  LIG1        0.0000
      7 C7          3.7233   -0.7139   -0.0372 C.3     1  LIG1        0.0000
      8 N8          4.7824    0.3053   -0.0414 N.pl3   1  LIG1        0.0000
      9 C9          5.0750    0.9304   -1.2555 C.ar    1  LIG1        0.0000
     10 C10         5.5581    2.2381   -1.2575 C.ar    1  LIG1        0.0000
     11 C11         5.8389    2.9958    0.0382 C.3     1  LIG1        0.0000
     12 C12         5.7847    2.8942   -2.4655 C.ar    1  LIG1        0.0000
     13 C13         5.5272    2.2265   -3.6578 C.ar    1  LIG1        0.0000
     14 C14         5.7417    2.9448   -4.9845 C.3     1  LIG1        0.0000
     15 C15         5.0670    0.9110   -3.6066 C.ar    1  LIG1        0.0000
     16 C16         4.8360    0.2164   -2.4178 C.ar    1  LIG1        0.0000
     17 C17         4.3541   -1.1598   -2.3475 C.2     1  LIG1        0.0000
     18 C18         4.2852   -2.2028   -3.2208 C.2     1  LIG1        0.0000
     19 C19         3.6880   -3.2845   -2.5320 C.2     1  LIG1        0.0000
     20 C20         3.4025   -4.6618   -3.1095 C.3     1  LIG1        0.0000
     21 N21         3.4226   -2.8850   -1.3105 N.2     1  LIG1        0.0000
     22 N22         3.8101   -1.6251   -1.1939 N.pl3   1  LIG1        0.0000
     23 C23         2.3968    1.4145   -0.0145 C.ar    1  LIG1        0.0000
     24 C24         1.1790    2.0860    0.0007 C.ar    1  LIG1        0.0000
     25 O25         1.1526    3.4354    0.0095 O.3     1  LIG1        0.0000
     26 H           3.8006   -1.2528    0.8017 H       1  LIG1        0.0000
     27 H          -3.1710    1.7971    0.0440 H       1  LIG1        0.0000
     28 H          -2.3646    0.6451   -0.7863 H       1  LIG1        0.0000
     29 H          -2.3475    0.6377    0.8466 H       1  LIG1        0.0000
     30 H          -0.8780   -0.5221    0.0089 H       1  LIG1        0.0000
     31 H           1.2156   -1.6909   -0.0168 H       1  LIG1        0.0000
     32 H           5.2760    0.5426    0.7954 H       1  LIG1        0.0000
     33 H           6.1772    3.9117   -0.1778 H       1  LIG1        0.0000
     34 H           4.9959    3.0688    0.5711 H       1  LIG1        0.0000
     35 H           6.5277    2.5029    0.5700 H       1  LIG1        0.0000
     36 H           6.1282    3.8333   -2.4750 H       1  LIG1        0.0000
     37 H           6.0722    3.8726   -4.8116 H       1  LIG1        0.0000
     38 H           6.4170    2.4463   -5.5281 H       1  LIG1        0.0000
     39 H           4.8767    2.9868   -5.4844 H       1  LIG1        0.0000
     40 H           4.8926    0.4384   -4.4704 H       1  LIG1        0.0000
     41 H           4.5981   -2.2037   -4.1706 H       1  LIG1        0.0000
     42 H           3.7062   -4.6935   -4.0617 H       1  LIG1        0.0000
     43 H           3.8932   -5.3537   -2.5799 H       1  LIG1        0.0000
     44 H           2.4202   -4.8441   -3.0667 H       1  LIG1        0.0000
     45 H           3.2584    1.9220   -0.0202 H       1  LIG1        0.0000
     46 H           2.0086    3.9522    0.0036 H       1  LIG1        0.0000
@<TRIPOS>BOND
     1     1     2    1
     2     2     3    1
     3     3     4   ar
     4     4     5   ar
     5     5     6   ar
     6     6     7    1
     7     7     8    1
     8     8     9    1
     9     9    10   ar
    10    10    11    1
    11    10    12   ar
    12    12    13   ar
    13    13    14    1
    14    13    15   ar
    15    15    16   ar
    16    16     9   ar
    17    16    17    1
    18    17    18    2
    19    18    19    1
    20    19    20    1
    21    19    21    2
    22    21    22    1
    23    22    17    1
    24    22     7    1
    25     6    23   ar
    26    23    24   ar
    27    24     3   ar
    28    24    25    1
    29     7    26    1
    30     1    27    1
    31     1    28    1
    32     1    29    1
    33     4    30    1
    34     5    31    1
    35     8    32    1
    36    11    33    1
    37    11    34    1
    38    11    35    1
    39    12    36    1
    40    14    37    1
    41    14    38    1
    42    14    39    1
    43    15    40    1
    44    18    41    1
    45    20    42    1
    46    20    43    1
    47    20    44    1
    48    23    45    1
    49    25    46    1
