@<TRIPOS>MOLECULE
*****
 46 49 0 0 0
SMALL
USER_CHARGES

@<TRIPOS>ATOM
      1 C1         -2.3553    1.2187    0.0328 C.3     1  LIG1        0.0000
      2 O2         -1.1948    2.0371    0.0243 O.3     1  LIG1        0.0000
      3 C3         -0.0178    1.3763    0.0090 C.ar    1  LIG1        0.0000
      4 C4         -0.0163   -0.0147    0.0026 C.ar    1  LIG1        0.0000
      5 C5          1.1996   -0.6910   -0.0125 C.ar    1  LIG1        0.0000
      6 C6          2.3933    0.0238   -0.0216 C.ar    1  LIG1        0.0000
      7 C7          3.7233   -0.7139   -0.0372 C.3     1  LIG1        0.0000
      8 N8          3.5709   -1.8600   -0.9448 N.pl3   1  LIG1        0.0000
      9 C9          2.9102   -2.9894   -0.4567 C.ar    1  LIG1        0.0000
     10 C10         2.2038   -3.8077   -1.3369 C.ar    1  LIG1        0.0000
     11 C11         2.1789   -3.5422   -2.8405 C.3     1  LIG1        0.0000
     12 C12         1.4830   -4.8956   -0.8491 C.ar    1  LIG1        0.0000
     13 C13         1.4841   -5.1509    0.5179 C.ar    1  LIG1        0.0000
     14 C14         0.6741   -6.3193    1.0662 C.3     1  LIG1        0.0000
     15 C15         2.2243   -4.3188    1.3573 C.ar    1  LIG1        0.0000
     16 C16         2.9660   -3.2251    0.9068 C.ar    1  LIG1        0.0000
     17 C17         3.7451   -2.3447    1.7723 C.2     1  LIG1        0.0000
     18 C18         4.2345   -2.4265    3.0409 C.2     1  LIG1        0.0000
     19 C19         4.9067   -1.2106    3.3074 C.2     1  LIG1        0.0000
     20 C20         5.6096   -0.8454    4.6054 C.3     1  LIG1        0.0000
     21 N21         4.8112   -0.4564    2.2379 N.2     1  LIG1        0.0000
     22 N22         4.1202   -1.1192    1.3245 N.pl3   1  LIG1        0.0000
     23 C23         2.3968    1.4145   -0.0145 C.ar    1  LIG1        0.0000
     24 C24         1.1790    2.0860    0.0007 C.ar    1  LIG1        0.0000
     25 O25         1.1526    3.4354    0.0095 O.3     1  LIG1        0.0000
     26 H           4.4239   -0.1035   -0.4067 H       1  LIG1        0.0000
     27 H          -3.1710    1.7971    0.0440 H       1  LIG1        0.0000
     28 H          -2.3646    0.6451   -0.7863 H       1  LIG1        0.0000
     29 H          -2.3475    0.6377    0.8466 H       1  LIG1        0.0000
     30 H          -0.8780   -0.5221    0.0089 H       1  LIG1        0.0000
     31 H           1.2156   -1.6909   -0.0168 H       1  LIG1        0.0000
     32 H           3.9276   -1.8319   -1.8786 H       1  LIG1        0.0000
     33 H           1.6205   -4.2378   -3.2926 H       1  LIG1        0.0000
     34 H           1.7887   -2.6377   -3.0129 H       1  LIG1        0.0000
     35 H           3.1111   -3.5772   -3.2007 H       1  LIG1        0.0000
     36 H           0.9713   -5.4853   -1.4739 H       1  LIG1        0.0000
     37 H           0.2173   -6.7913    0.3122 H       1  LIG1        0.0000
     38 H           1.2845   -6.9562    1.5372 H       1  LIG1        0.0000
     39 H          -0.0111   -5.9772    1.7092 H       1  LIG1        0.0000
     40 H           2.2239   -4.5168    2.3375 H       1  LIG1        0.0000
     41 H           4.1369   -3.2006    3.6663 H       1  LIG1        0.0000
     42 H           5.5292   -1.6034    5.2527 H       1  LIG1        0.0000
     43 H           6.5759   -0.6649    4.4218 H       1  LIG1        0.0000
     44 H           5.1859   -0.0278    4.9953 H       1  LIG1        0.0000
     45 H           3.2584    1.9220   -0.0202 H       1  LIG1        0.0000
     46 H           2.0086    3.9522    0.0036 H       1  LIG1        0.0000
@<TRIPOS>BOND
     1     1     2    1
     2     2     3    1
     3     3     4   ar
     4     4     5   ar
     5     5     6   ar
     6     6     7    1
     7     7     8    1
     8     8     9    1
     9     9    10   ar
    10    10    11    1
    11    10    12   ar
    12    12    13   ar
    13    13    14    1
    14    13    15   ar
    15    15    16   ar
    16    16     9   ar
    17    16    17    1
    18    17    18    2
    19    18    19    1
    20    19    20    1
    21    19    21    2
    22    21    22    1
    23    22    17    1
    24    22     7    1
    25     6    23   ar
    26    23    24   ar
    27    24     3   ar
    28    24    25    1
    29     7    26    1
    30     1    27    1
    31     1    28    1
    32     1    29    1
    33     4    30    1
    34     5    31    1
    35     8    32    1
    36    11    33    1
    37    11    34    1
    38    11    35    1
    39    12    36    1
    40    14    37    1
    41    14    38    1
    42    14    39    1
    43    15    40    1
    44    18    41    1
    45    20    42    1
    46    20    43    1
    47    20    44    1
    48    23    45    1
    49    25    46    1
