@<TRIPOS>MOLECULE
*****
 46 49 0 0 0
SMALL
USER_CHARGES

@<TRIPOS>ATOM
      1 C1         -2.3553    1.2187    0.0328 C.3     1  LIG1        0.0000
      2 O2         -1.1948    2.0371    0.0243 O.3     1  LIG1        0.0000
      3 C3         -0.0178    1.3763    0.0090 C.ar    1  LIG1        0.0000
      4 C4         -0.0163   -0.0147    0.0026 C.ar    1  LIG1        0.0000
      5 C5          1.1996   -0.6910   -0.0125 C.ar    1  LIG1        0.0000
      6 C6          2.3933    0.0238   -0.0216 C.ar    1  LIG1        0.0000
      7 C7          3.7222   -0.7133   -0.0371 C.3     1  LIG1        0.0000
      8 N8          4.6123   -0.1958    1.0117 N.pl3   1  LIG1        0.0000
      9 C9          6.0018   -0.3558    0.9460 C.ar    1  LIG1        0.0000
     10 C10         6.8083   -0.3469    2.0829 C.ar    1  LIG1        0.0000
     11 C11         6.2229   -0.1643    3.4742 C.3     1  LIG1        0.0000
     12 C12         8.1870   -0.5057    1.9791 C.ar    1  LIG1        0.0000
     13 C13         8.7584   -0.6748    0.7223 C.ar    1  LIG1        0.0000
     14 C14        10.2644   -0.8488    0.6043 C.3     1  LIG1        0.0000
     15 C15         7.9388   -0.6814   -0.4042 C.ar    1  LIG1        0.0000
     16 C16         6.5574   -0.5235   -0.3164 C.ar    1  LIG1        0.0000
     17 C17         5.6981   -0.5383   -1.4871 C.2     1  LIG1        0.0000
     18 C18         5.9770   -0.4680   -2.8210 C.2     1  LIG1        0.0000
     19 C19         4.7212   -0.5218   -3.4676 C.2     1  LIG1        0.0000
     20 C20         4.5025   -0.4741   -4.9714 C.3     1  LIG1        0.0000
     21 N21         3.7858   -0.6151   -2.5520 N.2     1  LIG1        0.0000
     22 N22         4.3503   -0.6216   -1.3655 N.pl3   1  LIG1        0.0000
     23 C23         2.3968    1.4145   -0.0145 C.ar    1  LIG1        0.0000
     24 C24         1.1790    2.0860    0.0007 C.ar    1  LIG1        0.0000
     25 O25         1.1526    3.4354    0.0095 O.3     1  LIG1        0.0000
     26 H           3.5439   -1.6782    0.1557 H       1  LIG1        0.0000
     27 H          -3.1710    1.7971    0.0440 H       1  LIG1        0.0000
     28 H          -2.3646    0.6451   -0.7863 H       1  LIG1        0.0000
     29 H          -2.3475    0.6377    0.8466 H       1  LIG1        0.0000
     30 H          -0.8780   -0.5221    0.0089 H       1  LIG1        0.0000
     31 H           1.2156   -1.6909   -0.0168 H       1  LIG1        0.0000
     32 H           4.2146    0.2838    1.7939 H       1  LIG1        0.0000
     33 H           6.9588   -0.1869    4.1509 H       1  LIG1        0.0000
     34 H           5.7508    0.7158    3.5243 H       1  LIG1        0.0000
     35 H           5.5742   -0.9017    3.6623 H       1  LIG1        0.0000
     36 H           8.7602   -0.4982    2.7986 H       1  LIG1        0.0000
     37 H          10.6761   -0.8162    1.5150 H       1  LIG1        0.0000
     38 H          10.4657   -1.7312    0.1789 H       1  LIG1        0.0000
     39 H          10.6418   -0.1135    0.0414 H       1  LIG1        0.0000
     40 H           8.3555   -0.8034   -1.3050 H       1  LIG1        0.0000
     41 H           6.8775   -0.3943   -3.2495 H       1  LIG1        0.0000
     42 H           5.3859   -0.4022   -5.4346 H       1  LIG1        0.0000
     43 H           4.0379   -1.3087   -5.2674 H       1  LIG1        0.0000
     44 H           3.9399    0.3200   -5.2014 H       1  LIG1        0.0000
     45 H           3.2584    1.9220   -0.0202 H       1  LIG1        0.0000
     46 H           2.0086    3.9522    0.0036 H       1  LIG1        0.0000
@<TRIPOS>BOND
     1     1     2    1
     2     2     3    1
     3     3     4   ar
     4     4     5   ar
     5     5     6   ar
     6     6     7    1
     7     7     8    1
     8     8     9    1
     9     9    10   ar
    10    10    11    1
    11    10    12   ar
    12    12    13   ar
    13    13    14    1
    14    13    15   ar
    15    15    16   ar
    16    16     9   ar
    17    16    17    1
    18    17    18    2
    19    18    19    1
    20    19    20    1
    21    19    21    2
    22    21    22    1
    23    22    17    1
    24    22     7    1
    25     6    23   ar
    26    23    24   ar
    27    24     3   ar
    28    24    25    1
    29     7    26    1
    30     1    27    1
    31     1    28    1
    32     1    29    1
    33     4    30    1
    34     5    31    1
    35     8    32    1
    36    11    33    1
    37    11    34    1
    38    11    35    1
    39    12    36    1
    40    14    37    1
    41    14    38    1
    42    14    39    1
    43    15    40    1
    44    18    41    1
    45    20    42    1
    46    20    43    1
    47    20    44    1
    48    23    45    1
    49    25    46    1
