@<TRIPOS>MOLECULE
*****
 46 49 0 0 0
SMALL
USER_CHARGES

@<TRIPOS>ATOM
      1 C1         -2.3022    1.3259   -0.5090 C.3     1  LIG1        0.0000
      2 O2         -1.1948    2.0371    0.0243 O.3     1  LIG1        0.0000
      3 C3         -0.0178    1.3763    0.0090 C.ar    1  LIG1        0.0000
      4 C4         -0.0163   -0.0147    0.0026 C.ar    1  LIG1        0.0000
      5 C5          1.1996   -0.6910   -0.0125 C.ar    1  LIG1        0.0000
      6 C6          2.3933    0.0238   -0.0216 C.ar    1  LIG1        0.0000
      7 C7          3.7234   -0.7139   -0.0372 C.3     1  LIG1        0.0000
      8 N8          4.7782    0.3043   -0.0413 N.pl3   1  LIG1        0.0000
      9 C9          6.0200    0.1148   -0.6634 C.ar    1  LIG1        0.0000
     10 C10         7.1569    0.8179   -0.2733 C.ar    1  LIG1        0.0000
     11 C11         7.1283    1.7921    0.8926 C.3     1  LIG1        0.0000
     12 C12         8.3660    0.6574   -0.9414 C.ar    1  LIG1        0.0000
     13 C13         8.4162   -0.2260   -2.0133 C.ar    1  LIG1        0.0000
     14 C14         9.7172   -0.3682   -2.7850 C.3     1  LIG1        0.0000
     15 C15         7.2889   -0.9546   -2.3777 C.ar    1  LIG1        0.0000
     16 C16         6.0795   -0.8032   -1.7019 C.ar    1  LIG1        0.0000
     17 C17         4.8781   -1.5633   -2.0233 C.2     1  LIG1        0.0000
     18 C18         4.6172   -2.3950   -3.0697 C.2     1  LIG1        0.0000
     19 C19         3.2979   -2.8522   -2.8642 C.2     1  LIG1        0.0000
     20 C20         2.5404   -3.8068   -3.7737 C.3     1  LIG1        0.0000
     21 N21         2.8348   -2.3136   -1.7621 N.2     1  LIG1        0.0000
     22 N22         3.7661   -1.5355   -1.2532 N.pl3   1  LIG1        0.0000
     23 C23         2.3968    1.4145   -0.0145 C.ar    1  LIG1        0.0000
     24 C24         1.1790    2.0860    0.0007 C.ar    1  LIG1        0.0000
     25 O25         1.1526    3.4354    0.0095 O.3     1  LIG1        0.0000
     26 H           3.8061   -1.2932    0.7737 H       1  LIG1        0.0000
     27 H          -3.1222    1.8955   -0.4534 H       1  LIG1        0.0000
     28 H          -2.1209    1.0949   -1.4649 H       1  LIG1        0.0000
     29 H          -2.4432    0.4864    0.0158 H       1  LIG1        0.0000
     30 H          -0.8780   -0.5221    0.0089 H       1  LIG1        0.0000
     31 H           1.2156   -1.6909   -0.0168 H       1  LIG1        0.0000
     32 H           4.6039    1.1738    0.4208 H       1  LIG1        0.0000
     33 H           8.0362    2.1933    1.0141 H       1  LIG1        0.0000
     34 H           6.4658    2.5173    0.7048 H       1  LIG1        0.0000
     35 H           6.8640    1.3069    1.7261 H       1  LIG1        0.0000
     36 H           9.1794    1.1652   -0.6577 H       1  LIG1        0.0000
     37 H          10.4110    0.2282   -2.3814 H       1  LIG1        0.0000
     38 H          10.0280   -1.3177   -2.7424 H       1  LIG1        0.0000
     39 H           9.5687   -0.1085   -3.7393 H       1  LIG1        0.0000
     40 H           7.3474   -1.5997   -3.1395 H       1  LIG1        0.0000
     41 H           5.2303   -2.6315   -3.8235 H       1  LIG1        0.0000
     42 H           3.1233   -4.0669   -4.5435 H       1  LIG1        0.0000
     43 H           2.2837   -4.6247   -3.2587 H       1  LIG1        0.0000
     44 H           1.7161   -3.3566   -4.1169 H       1  LIG1        0.0000
     45 H           3.2584    1.9220   -0.0202 H       1  LIG1        0.0000
     46 H           2.0086    3.9522    0.0036 H       1  LIG1        0.0000
@<TRIPOS>BOND
     1     1     2    1
     2     2     3    1
     3     3     4   ar
     4     4     5   ar
     5     5     6   ar
     6     6     7    1
     7     7     8    1
     8     8     9    1
     9     9    10   ar
    10    10    11    1
    11    10    12   ar
    12    12    13   ar
    13    13    14    1
    14    13    15   ar
    15    15    16   ar
    16    16     9   ar
    17    16    17    1
    18    17    18    2
    19    18    19    1
    20    19    20    1
    21    19    21    2
    22    21    22    1
    23    22    17    1
    24    22     7    1
    25     6    23   ar
    26    23    24   ar
    27    24     3   ar
    28    24    25    1
    29     7    26    1
    30     1    27    1
    31     1    28    1
    32     1    29    1
    33     4    30    1
    34     5    31    1
    35     8    32    1
    36    11    33    1
    37    11    34    1
    38    11    35    1
    39    12    36    1
    40    14    37    1
    41    14    38    1
    42    14    39    1
    43    15    40    1
    44    18    41    1
    45    20    42    1
    46    20    43    1
    47    20    44    1
    48    23    45    1
    49    25    46    1
