@<TRIPOS>MOLECULE
*****
 46 49 0 0 0
SMALL
USER_CHARGES

@<TRIPOS>ATOM
      1 C1         -2.3553    1.2187    0.0328 C.3     1  LIG1        0.0000
      2 O2         -1.1948    2.0371    0.0243 O.3     1  LIG1        0.0000
      3 C3         -0.0178    1.3763    0.0090 C.ar    1  LIG1        0.0000
      4 C4         -0.0163   -0.0147    0.0026 C.ar    1  LIG1        0.0000
      5 C5          1.1996   -0.6910   -0.0125 C.ar    1  LIG1        0.0000
      6 C6          2.3933    0.0238   -0.0216 C.ar    1  LIG1        0.0000
      7 C7          3.7233   -0.7139   -0.0372 C.3     1  LIG1        0.0000
      8 N8          3.5870   -1.8692    0.8613 N.pl3   1  LIG1        0.0000
      9 C9          3.6915   -1.6376    2.2346 C.ar    1  LIG1        0.0000
     10 C10         3.0036   -2.4600    3.1256 C.ar    1  LIG1        0.0000
     11 C11         2.1807   -3.6548    2.6489 C.3     1  LIG1        0.0000
     12 C12         3.0446   -2.1929    4.4924 C.ar    1  LIG1        0.0000
     13 C13         3.7804   -1.1045    4.9481 C.ar    1  LIG1        0.0000
     14 C14         3.8071   -0.7843    6.4377 C.3     1  LIG1        0.0000
     15 C15         4.4713   -0.3239    4.0218 C.ar    1  LIG1        0.0000
     16 C16         4.4626   -0.5636    2.6464 C.ar    1  LIG1        0.0000
     17 C17         5.1797    0.2442    1.6644 C.2     1  LIG1        0.0000
     18 C18         6.2000    1.1451    1.7174 C.2     1  LIG1        0.0000
     19 C19         6.4285    1.5944    0.3956 C.2     1  LIG1        0.0000
     20 C20         7.4733    2.6126   -0.0328 C.3     1  LIG1        0.0000
     21 N21         5.5766    0.9791   -0.3903 N.2     1  LIG1        0.0000
     22 N22         4.8295    0.1800    0.3543 N.pl3   1  LIG1        0.0000
     23 C23         2.3968    1.4145   -0.0145 C.ar    1  LIG1        0.0000
     24 C24         1.1790    2.0860    0.0007 C.ar    1  LIG1        0.0000
     25 O25         1.1526    3.4354    0.0095 O.3     1  LIG1        0.0000
     26 H           3.8938   -1.0475   -0.9643 H       1  LIG1        0.0000
     27 H          -3.1710    1.7971    0.0440 H       1  LIG1        0.0000
     28 H          -2.3646    0.6451   -0.7863 H       1  LIG1        0.0000
     29 H          -2.3475    0.6377    0.8466 H       1  LIG1        0.0000
     30 H          -0.8780   -0.5221    0.0089 H       1  LIG1        0.0000
     31 H           1.2156   -1.6909   -0.0168 H       1  LIG1        0.0000
     32 H           3.4251   -2.7883    0.5020 H       1  LIG1        0.0000
     33 H           1.7691   -4.1119    3.4373 H       1  LIG1        0.0000
     34 H           1.4593   -3.3382    2.0331 H       1  LIG1        0.0000
     35 H           2.7749   -4.2966    2.1642 H       1  LIG1        0.0000
     36 H           2.5512   -2.7764    5.1374 H       1  LIG1        0.0000
     37 H           3.2547   -1.4550    6.9328 H       1  LIG1        0.0000
     38 H           4.7498   -0.8190    6.7693 H       1  LIG1        0.0000
     39 H           3.4341    0.1312    6.5886 H       1  LIG1        0.0000
     40 H           5.0033    0.4515    4.3620 H       1  LIG1        0.0000
     41 H           6.6946    1.4346    2.5369 H       1  LIG1        0.0000
     42 H           7.9863    2.9211    0.7683 H       1  LIG1        0.0000
     43 H           8.1003    2.1913   -0.6881 H       1  LIG1        0.0000
     44 H           7.0206    3.3951   -0.4603 H       1  LIG1        0.0000
     45 H           3.2584    1.9220   -0.0202 H       1  LIG1        0.0000
     46 H           2.0086    3.9522    0.0036 H       1  LIG1        0.0000
@<TRIPOS>BOND
     1     1     2    1
     2     2     3    1
     3     3     4   ar
     4     4     5   ar
     5     5     6   ar
     6     6     7    1
     7     7     8    1
     8     8     9    1
     9     9    10   ar
    10    10    11    1
    11    10    12   ar
    12    12    13   ar
    13    13    14    1
    14    13    15   ar
    15    15    16   ar
    16    16     9   ar
    17    16    17    1
    18    17    18    2
    19    18    19    1
    20    19    20    1
    21    19    21    2
    22    21    22    1
    23    22    17    1
    24    22     7    1
    25     6    23   ar
    26    23    24   ar
    27    24     3   ar
    28    24    25    1
    29     7    26    1
    30     1    27    1
    31     1    28    1
    32     1    29    1
    33     4    30    1
    34     5    31    1
    35     8    32    1
    36    11    33    1
    37    11    34    1
    38    11    35    1
    39    12    36    1
    40    14    37    1
    41    14    38    1
    42    14    39    1
    43    15    40    1
    44    18    41    1
    45    20    42    1
    46    20    43    1
    47    20    44    1
    48    23    45    1
    49    25    46    1
