@<TRIPOS>MOLECULE

  20   21
SMALL
USER_CHARGES
@<TRIPOS>ATOM
   1 O1           6.4195    -0.9345     1.5911 O.2          1    LIG   0.0000
   2 S2           4.9428    -0.7922     1.8837 S.o2         1    LIG   0.0000
   3 O3           4.4885    -1.7944     2.9141 O.2          1    LIG   0.0000
   4 C4           4.4425     0.8531     2.4497 C.3          1    LIG   0.0000
   5 C5           2.9230     0.9040     2.4359 C.3          1    LIG   0.0000
   6 C6           2.4221     1.0000     1.0000 C.3          1    LIG   0.0000
   7 O7           1.0000     1.0000     1.0000 O.3          1    LIG   0.0000
   8 C8           2.8811    -0.1082     0.0478 C.2          1    LIG   0.0000
   9 C9           2.4671    -0.6093    -1.2199 C.2          1    LIG   0.0000
  10 C10          3.1962    -1.6563    -1.7417 C.2          1    LIG   0.0000
  11 S11          4.4185    -2.0270    -0.6130 S.3          1    LIG   0.0000
  12 C12          3.9467    -0.8231     0.4727 C.2          1    LIG   0.0000
  13 H            2.7296     1.8745     0.6249 H            1    LIG   0.0000
  14 H            4.8123     1.5513     1.8367 H            1    LIG   0.0000
  15 H            4.7802     1.0114     3.3776 H            1    LIG   0.0000
  16 H            2.5593     0.0744     2.8595 H            1    LIG   0.0000
  17 H            2.6131     1.7040     2.9497 H            1    LIG   0.0000
  18 H            0.6667     1.7151     1.6144 H            1    LIG   0.0000
  19 H            1.6856    -0.2203    -1.7076 H            1    LIG   0.0000
  20 H            3.0378    -2.1125    -2.6173 H            1    LIG   0.0000
@<TRIPOS>BOND
   1        1        2 2
   2        2        3 2
   3        2        4 1
   4        4        5 1
   5        5        6 1
   6        6        7 1
   7        6        8 1
   8        8        9 1
   9        9       10 2
  10       10       11 1
  11       11       12 1
  12       12        8 2
  13       12        2 1
  14        6       13 1
  15        4       14 1
  16        4       15 1
  17        5       16 1
  18        5       17 1
  19        7       18 1
  20        9       19 1
  21       10       20 1

@<TRIPOS>MOLECULE

  20   21
SMALL
USER_CHARGES
@<TRIPOS>ATOM
   1 O1           3.1299     2.7448    -3.0579 O.2          1    LIG   0.0000
   2 S2           3.5565     1.9326    -1.8551 S.o2         1    LIG   0.0000
   3 O3           4.9629     1.4075    -2.0066 O.2          1    LIG   0.0000
   4 C4           2.4863     0.5250    -1.4786 C.3          1    LIG   0.0000
   5 C5           2.8622     0.0278    -0.0891 C.3          1    LIG   0.0000
   6 C6           2.4194     1.0000     1.0000 C.3          1    LIG   0.0000
   7 O7           1.0000     1.0000     1.0000 O.3          1    LIG   0.0000
   8 C8           2.9116     2.4392     0.8653 C.2          1    LIG   0.0000
   9 C9           3.0422     3.5989     1.6838 C.2          1    LIG   0.0000
  10 C10          3.5400     4.7360     1.0859 C.2          1    LIG   0.0000
  11 S11          3.8719     4.3830    -0.5476 S.3          1    LIG   0.0000
  12 C12          3.3728     2.7759    -0.3585 C.2          1    LIG   0.0000
  13 H            2.7315     0.6447     1.8811 H            1    LIG   0.0000
  14 H            2.6270    -0.2013    -2.1515 H            1    LIG   0.0000
  15 H            1.5280     0.8107    -1.4920 H            1    LIG   0.0000
  16 H            2.4225    -0.8565     0.0682 H            1    LIG   0.0000
  17 H            3.8552    -0.0807    -0.0419 H            1    LIG   0.0000
  18 H            0.6667     0.0613     1.0878 H            1    LIG   0.0000
  19 H            2.7839     3.5876     2.6498 H            1    LIG   0.0000
  20 H            3.6823     5.6184     1.5344 H            1    LIG   0.0000
@<TRIPOS>BOND
   1        1        2 2
   2        2        3 2
   3        2        4 1
   4        4        5 1
   5        5        6 1
   6        6        7 1
   7        6        8 1
   8        8        9 1
   9        9       10 2
  10       10       11 1
  11       11       12 1
  12       12        8 2
  13       12        2 1
  14        6       13 1
  15        4       14 1
  16        4       15 1
  17        5       16 1
  18        5       17 1
  19        7       18 1
  20        9       19 1
  21       10       20 1

@<TRIPOS>MOLECULE

  20   21
SMALL
USER_CHARGES
@<TRIPOS>ATOM
   1 O1           6.6906     1.0804    -0.0551 O.2          1    LIG   0.0000
   2 S2           5.3519     0.9538     0.6381 S.o2         1    LIG   0.0000
   3 O3           5.4410     0.5780     2.0988 O.2          1    LIG   0.0000
   4 C4           4.2931    -0.0921    -0.3913 C.3          1    LIG   0.0000
   5 C5           2.8389    -0.1355     0.0725 C.3          1    LIG   0.0000
   6 C6           2.4202     1.0000     1.0000 C.3          1    LIG   0.0000
   7 O7           1.0000     1.0000     1.0000 O.3          1    LIG   0.0000
   8 C8           2.9681     2.3359     0.5021 C.2          1    LIG   0.0000
   9 C9           2.4361     3.6076     0.1401 C.2          1    LIG   0.0000
  10 C10          3.3362     4.5473    -0.2952 C.2          1    LIG   0.0000
  11 S11          4.8688     3.8014    -0.2501 S.3          1    LIG   0.0000
  12 C12          4.3103     2.3046     0.3317 C.2          1    LIG   0.0000
  13 H            2.7571     0.8213     1.9245 H            1    LIG   0.0000
  14 H            4.6576    -1.0232    -0.3757 H            1    LIG   0.0000
  15 H            4.3159     0.2592    -1.3273 H            1    LIG   0.0000
  16 H            2.2544    -0.1044    -0.7383 H            1    LIG   0.0000
  17 H            2.6936    -0.9991     0.5553 H            1    LIG   0.0000
  18 H            0.6667     0.1166     1.3293 H            1    LIG   0.0000
  19 H            1.4576     3.8048     0.2002 H            1    LIG   0.0000
  20 H            3.1336     5.4837    -0.5819 H            1    LIG   0.0000
@<TRIPOS>BOND
   1        1        2 2
   2        2        3 2
   3        2        4 1
   4        4        5 1
   5        5        6 1
   6        6        7 1
   7        6        8 1
   8        8        9 1
   9        9       10 2
  10       10       11 1
  11       11       12 1
  12       12        8 2
  13       12        2 1
  14        6       13 1
  15        4       14 1
  16        4       15 1
  17        5       16 1
  18        5       17 1
  19        7       18 1
  20        9       19 1
  21       10       20 1

