@<TRIPOS>MOLECULE
*****
 20 21 0 0 0
SMALL
USER_CHARGES

@<TRIPOS>ATOM
      1 O1          6.4195   -0.9345    1.5911 O.2     1  LIG1        0.0000
      2 S2          4.9428   -0.7922    1.8837 S.O2    1  LIG1        0.0000
      3 O3          4.4885   -1.7944    2.9141 O.2     1  LIG1        0.0000
      4 C4          4.4425    0.8531    2.4497 C.3     1  LIG1        0.0000
      5 C5          2.9230    0.9040    2.4359 C.3     1  LIG1        0.0000
      6 C6          2.4221    1.0000    1.0000 C.3     1  LIG1        0.0000
      7 O7          1.0000    1.0000    1.0000 O.3     1  LIG1        0.0000
      8 C8          2.8811   -0.1082    0.0478 C.2     1  LIG1        0.0000
      9 C9          2.4671   -0.6093   -1.2199 C.2     1  LIG1        0.0000
     10 C10         3.1962   -1.6563   -1.7417 C.2     1  LIG1        0.0000
     11 S11         4.4185   -2.0270   -0.6130 S.3     1  LIG1        0.0000
     12 C12         3.9467   -0.8231    0.4727 C.2     1  LIG1        0.0000
     13 H           2.7296    1.8745    0.6249 H       1  LIG1        0.0000
     14 H           4.8123    1.5513    1.8367 H       1  LIG1        0.0000
     15 H           4.7802    1.0114    3.3776 H       1  LIG1        0.0000
     16 H           2.5593    0.0744    2.8595 H       1  LIG1        0.0000
     17 H           2.6131    1.7040    2.9497 H       1  LIG1        0.0000
     18 H           0.6667    1.7151    1.6144 H       1  LIG1        0.0000
     19 H           1.6856   -0.2203   -1.7076 H       1  LIG1        0.0000
     20 H           3.0378   -2.1125   -2.6173 H       1  LIG1        0.0000
@<TRIPOS>BOND
     1     1     2    2
     2     2     3    2
     3     2     4    1
     4     4     5    1
     5     5     6    1
     6     6     7    1
     7     6     8    1
     8     8     9    1
     9     9    10    2
    10    10    11    1
    11    11    12    1
    12    12     8    2
    13    12     2    1
    14     6    13    1
    15     4    14    1
    16     4    15    1
    17     5    16    1
    18     5    17    1
    19     7    18    1
    20     9    19    1
    21    10    20    1
