@<TRIPOS>MOLECULE
*****
 20 21 0 0 0
SMALL
USER_CHARGES

@<TRIPOS>ATOM
      1 O1          6.6906    1.0804   -0.0551 O.2     1  LIG1        0.0000
      2 S2          5.3519    0.9538    0.6381 S.O2    1  LIG1        0.0000
      3 O3          5.4410    0.5780    2.0988 O.2     1  LIG1        0.0000
      4 C4          4.2931   -0.0921   -0.3913 C.3     1  LIG1        0.0000
      5 C5          2.8389   -0.1355    0.0725 C.3     1  LIG1        0.0000
      6 C6          2.4202    1.0000    1.0000 C.3     1  LIG1        0.0000
      7 O7          1.0000    1.0000    1.0000 O.3     1  LIG1        0.0000
      8 C8          2.9681    2.3359    0.5021 C.2     1  LIG1        0.0000
      9 C9          2.4361    3.6076    0.1401 C.2     1  LIG1        0.0000
     10 C10         3.3362    4.5473   -0.2952 C.2     1  LIG1        0.0000
     11 S11         4.8688    3.8014   -0.2501 S.3     1  LIG1        0.0000
     12 C12         4.3103    2.3046    0.3317 C.2     1  LIG1        0.0000
     13 H           2.7571    0.8213    1.9245 H       1  LIG1        0.0000
     14 H           4.6576   -1.0232   -0.3757 H       1  LIG1        0.0000
     15 H           4.3159    0.2592   -1.3273 H       1  LIG1        0.0000
     16 H           2.2544   -0.1044   -0.7383 H       1  LIG1        0.0000
     17 H           2.6936   -0.9991    0.5553 H       1  LIG1        0.0000
     18 H           0.6667    0.1166    1.3293 H       1  LIG1        0.0000
     19 H           1.4576    3.8048    0.2002 H       1  LIG1        0.0000
     20 H           3.1336    5.4837   -0.5819 H       1  LIG1        0.0000
@<TRIPOS>BOND
     1     1     2    2
     2     2     3    2
     3     2     4    1
     4     4     5    1
     5     5     6    1
     6     6     7    1
     7     6     8    1
     8     8     9    1
     9     9    10    2
    10    10    11    1
    11    11    12    1
    12    12     8    2
    13    12     2    1
    14     6    13    1
    15     4    14    1
    16     4    15    1
    17     5    16    1
    18     5    17    1
    19     7    18    1
    20     9    19    1
    21    10    20    1
