@<TRIPOS>MOLECULE
*****
 20 21 0 0 0
SMALL
USER_CHARGES

@<TRIPOS>ATOM
      1 O1          3.1299    2.7448   -3.0579 O.2     1  LIG1        0.0000
      2 S2          3.5565    1.9326   -1.8551 S.O2    1  LIG1        0.0000
      3 O3          4.9629    1.4075   -2.0066 O.2     1  LIG1        0.0000
      4 C4          2.4863    0.5250   -1.4786 C.3     1  LIG1        0.0000
      5 C5          2.8622    0.0278   -0.0891 C.3     1  LIG1        0.0000
      6 C6          2.4194    1.0000    1.0000 C.3     1  LIG1        0.0000
      7 O7          1.0000    1.0000    1.0000 O.3     1  LIG1        0.0000
      8 C8          2.9116    2.4392    0.8653 C.2     1  LIG1        0.0000
      9 C9          3.0422    3.5989    1.6838 C.2     1  LIG1        0.0000
     10 C10         3.5400    4.7360    1.0859 C.2     1  LIG1        0.0000
     11 S11         3.8719    4.3830   -0.5476 S.3     1  LIG1        0.0000
     12 C12         3.3728    2.7759   -0.3585 C.2     1  LIG1        0.0000
     13 H           2.7315    0.6447    1.8811 H       1  LIG1        0.0000
     14 H           2.6270   -0.2013   -2.1515 H       1  LIG1        0.0000
     15 H           1.5280    0.8107   -1.4920 H       1  LIG1        0.0000
     16 H           2.4225   -0.8565    0.0682 H       1  LIG1        0.0000
     17 H           3.8552   -0.0807   -0.0419 H       1  LIG1        0.0000
     18 H           0.6667    0.0613    1.0878 H       1  LIG1        0.0000
     19 H           2.7839    3.5876    2.6498 H       1  LIG1        0.0000
     20 H           3.6823    5.6184    1.5344 H       1  LIG1        0.0000
@<TRIPOS>BOND
     1     1     2    2
     2     2     3    2
     3     2     4    1
     4     4     5    1
     5     5     6    1
     6     6     7    1
     7     6     8    1
     8     8     9    1
     9     9    10    2
    10    10    11    1
    11    11    12    1
    12    12     8    2
    13    12     2    1
    14     6    13    1
    15     4    14    1
    16     4    15    1
    17     5    16    1
    18     5    17    1
    19     7    18    1
    20     9    19    1
    21    10    20    1
