@<TRIPOS>MOLECULE

  49   53
SMALL
USER_CHARGES
@<TRIPOS>ATOM
   1 C1           3.6831     2.1886    -0.0218 C.3          1    LIG   0.0000
   2 C2           2.3775     1.4103    -0.0133 C.ar         1    LIG   0.0000
   3 C3           2.4069     0.0197    -0.0206 C.ar         1    LIG   0.0000
   4 C4           1.2073    -0.6841    -0.0121 C.ar         1    LIG   0.0000
   5 C5          -0.0116    -0.0145     0.0026 C.ar         1    LIG   0.0000
   6 C6          -0.0175     1.3767     0.0098 C.ar         1    LIG   0.0000
   7 N7          -1.2388     2.0617     0.0249 N.pl3        1    LIG   0.0000
   8 C8          -2.5172     1.3352     0.0337 C.3          1    LIG   0.0000
   9 C9          -3.5936     2.1955    -0.6078 C.3          1    LIG   0.0000
  10 N10         -3.6681     3.4400     0.1689 N.pl3        1    LIG   0.0000
  11 C11         -4.9032     4.0920     0.2834 C.ar         1    LIG   0.0000
  12 C12         -5.4255     4.2678     1.5597 C.ar         1    LIG   0.0000
  13 C13         -6.6505     4.9130     1.6898 C.ar         1    LIG   0.0000
  14 C14         -7.1808     5.0883     3.0273 C.2          1    LIG   0.0000
  15 N15         -6.6139     4.6910     4.1381 N.2          1    LIG   0.0000
  16 N16         -7.4042     5.0332     5.1320 N.2          1    LIG   0.0000
  17 N17         -8.4214     5.6174     4.6581 N.2          1    LIG   0.0000
  18 N18         -8.3544     5.6904     3.3521 N.pl3        1    LIG  -1.0000
  19 N19         -7.3116     5.3551     0.6080 N.ar         1    LIG   1.0000
  20 C20         -6.8263     5.1959    -0.6334 C.ar         1    LIG   0.0000
  21 C21         -7.5299     5.6630    -1.7393 C.ar         1    LIG   0.0000
  22 C22         -7.0342     5.5018    -3.0292 C.ar         1    LIG   0.0000
  23 C23         -5.8151     4.8651    -3.2312 C.ar         1    LIG   0.0000
  24 C24         -5.1163     4.4011    -2.1222 C.ar         1    LIG   0.0000
  25 C25         -5.6040     4.5569    -0.8269 C.ar         1    LIG   0.0000
  26 C26         -2.4666     3.9629     0.8361 C.3          1    LIG   0.0000
  27 C27         -1.2304     3.5304     0.0653 C.3          1    LIG   0.0000
  28 C28          1.1700     2.1005     0.0019 C.ar         1    LIG   0.0000
  29 H           -8.1905     5.8160     0.7306 H            1    LIG   0.0000
  30 H            4.4521     1.5494    -0.0325 H            1    LIG   0.0000
  31 H            3.7203     2.7684    -0.8357 H            1    LIG   0.0000
  32 H            3.7360     2.7600     0.7972 H            1    LIG   0.0000
  33 H            3.2798    -0.4681    -0.0318 H            1    LIG   0.0000
  34 H            1.2213    -1.6840    -0.0167 H            1    LIG   0.0000
  35 H           -0.8712    -0.5255     0.0078 H            1    LIG   0.0000
  36 H           -2.7754     1.1265     0.9769 H            1    LIG   0.0000
  37 H           -2.4201     0.4836    -0.4815 H            1    LIG   0.0000
  38 H           -3.3518     2.3970    -1.5570 H            1    LIG   0.0000
  39 H           -4.4735     1.7210    -0.5814 H            1    LIG   0.0000
  40 H           -4.9322     3.9383     2.3648 H            1    LIG   0.0000
  41 H           -8.4076     6.1228    -1.6045 H            1    LIG   0.0000
  42 H           -7.5551     5.8441    -3.8113 H            1    LIG   0.0000
  43 H           -5.4487     4.7435    -4.1537 H            1    LIG   0.0000
  44 H           -4.2383     3.9423    -2.2586 H            1    LIG   0.0000
  45 H           -2.4204     3.6043     1.7685 H            1    LIG   0.0000
  46 H           -2.5091     4.9615     0.8647 H            1    LIG   0.0000
  47 H           -1.2589     3.8993    -0.8637 H            1    LIG   0.0000
  48 H           -0.4061     3.8562     0.5282 H            1    LIG   0.0000
  49 H            1.1560     3.1004     0.0070 H            1    LIG   0.0000
@<TRIPOS>BOND
   1        1        2 1
   2        2        3 ar
   3        3        4 ar
   4        4        5 ar
   5        5        6 ar
   6        6        7 1
   7        7        8 1
   8        8        9 1
   9        9       10 1
  10       10       11 1
  11       11       12 ar
  12       12       13 ar
  13       13       14 1
  14       14       15 2
  15       15       16 1
  16       16       17 2
  17       17       18 1
  18       18       14 1
  19       13       19 ar
  20       19       20 ar
  21       20       21 ar
  22       21       22 ar
  23       22       23 ar
  24       23       24 ar
  25       24       25 ar
  26       25       11 ar
  27       25       20 ar
  28       10       26 1
  29       26       27 1
  30       27        7 1
  31        6       28 ar
  32       28        2 ar
  33       19       29 1
  34        1       30 1
  35        1       31 1
  36        1       32 1
  37        3       33 1
  38        4       34 1
  39        5       35 1
  40        8       36 1
  41        8       37 1
  42        9       38 1
  43        9       39 1
  44       12       40 1
  45       21       41 1
  46       22       42 1
  47       23       43 1
  48       24       44 1
  49       26       45 1
  50       26       46 1
  51       27       47 1
  52       27       48 1
  53       28       49 1

@<TRIPOS>MOLECULE

  49   53
SMALL
USER_CHARGES
@<TRIPOS>ATOM
   1 C1           3.6831     2.1886    -0.0218 C.3          1    LIG   0.0000
   2 C2           2.3775     1.4103    -0.0133 C.ar         1    LIG   0.0000
   3 C3           2.4069     0.0197    -0.0206 C.ar         1    LIG   0.0000
   4 C4           1.2073    -0.6841    -0.0121 C.ar         1    LIG   0.0000
   5 C5          -0.0116    -0.0145     0.0026 C.ar         1    LIG   0.0000
   6 C6          -0.0175     1.3767     0.0098 C.ar         1    LIG   0.0000
   7 N7          -1.2388     2.0617     0.0249 N.pl3        1    LIG   0.0000
   8 C8          -2.5172     1.3352     0.0337 C.3          1    LIG   0.0000
   9 C9          -3.5936     2.1955    -0.6078 C.3          1    LIG   0.0000
  10 N10         -3.6681     3.4400     0.1689 N.pl3        1    LIG   0.0000
  11 C11         -4.9032     4.0920     0.2834 C.ar         1    LIG   0.0000
  12 C12         -5.5203     4.5176    -0.8873 C.ar         1    LIG   0.0000
  13 C13         -6.7466     5.1664    -0.7902 C.ar         1    LIG   0.0000
  14 C14         -7.3765     5.6037    -2.0202 C.2          1    LIG   0.0000
  15 N15         -6.8967     5.4484    -3.2280 N.2          1    LIG   0.0000
  16 N16         -7.7580     5.9781    -4.0689 N.2          1    LIG   0.0000
  17 N17         -8.7322     6.4451    -3.4104 N.2          1    LIG   0.0000
  18 N18         -8.5669     6.2494    -2.1260 N.pl3        1    LIG  -1.0000
  19 N19         -7.3194     5.3757     0.4058 N.ar         1    LIG   1.0000
  20 C20         -6.7415     4.9737     1.5487 C.ar         1    LIG   0.0000
  21 C21         -7.3548     5.2018     2.7767 C.ar         1    LIG   0.0000
  22 C22         -6.7625     4.7886     3.9658 C.ar         1    LIG   0.0000
  23 C23         -5.5362     4.1344     3.9412 C.ar         1    LIG   0.0000
  24 C24         -4.9284     3.9087     2.7111 C.ar         1    LIG   0.0000
  25 C25         -5.5126     4.3187     1.5152 C.ar         1    LIG   0.0000
  26 C26         -2.4666     3.9629     0.8361 C.3          1    LIG   0.0000
  27 C27         -1.2304     3.5304     0.0653 C.3          1    LIG   0.0000
  28 C28          1.1700     2.1005     0.0019 C.ar         1    LIG   0.0000
  29 H           -8.2017     5.8446     0.4465 H            1    LIG   0.0000
  30 H            4.4521     1.5494    -0.0325 H            1    LIG   0.0000
  31 H            3.7203     2.7684    -0.8357 H            1    LIG   0.0000
  32 H            3.7360     2.7600     0.7972 H            1    LIG   0.0000
  33 H            3.2798    -0.4681    -0.0318 H            1    LIG   0.0000
  34 H            1.2213    -1.6840    -0.0167 H            1    LIG   0.0000
  35 H           -0.8712    -0.5255     0.0078 H            1    LIG   0.0000
  36 H           -2.7754     1.1265     0.9769 H            1    LIG   0.0000
  37 H           -2.4201     0.4836    -0.4815 H            1    LIG   0.0000
  38 H           -3.3518     2.3970    -1.5570 H            1    LIG   0.0000
  39 H           -4.4735     1.7210    -0.5814 H            1    LIG   0.0000
  40 H           -5.0929     4.3611    -1.7777 H            1    LIG   0.0000
  41 H           -8.2374     5.6712     2.8050 H            1    LIG   0.0000
  42 H           -7.2190     4.9623     4.8384 H            1    LIG   0.0000
  43 H           -5.1007     3.8327     4.7893 H            1    LIG   0.0000
  44 H           -4.0463     3.4384     2.6844 H            1    LIG   0.0000
  45 H           -2.4204     3.6043     1.7685 H            1    LIG   0.0000
  46 H           -2.5091     4.9615     0.8647 H            1    LIG   0.0000
  47 H           -1.2589     3.8993    -0.8637 H            1    LIG   0.0000
  48 H           -0.4061     3.8562     0.5282 H            1    LIG   0.0000
  49 H            1.1560     3.1004     0.0070 H            1    LIG   0.0000
@<TRIPOS>BOND
   1        1        2 1
   2        2        3 ar
   3        3        4 ar
   4        4        5 ar
   5        5        6 ar
   6        6        7 1
   7        7        8 1
   8        8        9 1
   9        9       10 1
  10       10       11 1
  11       11       12 ar
  12       12       13 ar
  13       13       14 1
  14       14       15 2
  15       15       16 1
  16       16       17 2
  17       17       18 1
  18       18       14 1
  19       13       19 ar
  20       19       20 ar
  21       20       21 ar
  22       21       22 ar
  23       22       23 ar
  24       23       24 ar
  25       24       25 ar
  26       25       11 ar
  27       25       20 ar
  28       10       26 1
  29       26       27 1
  30       27        7 1
  31        6       28 ar
  32       28        2 ar
  33       19       29 1
  34        1       30 1
  35        1       31 1
  36        1       32 1
  37        3       33 1
  38        4       34 1
  39        5       35 1
  40        8       36 1
  41        8       37 1
  42        9       38 1
  43        9       39 1
  44       12       40 1
  45       21       41 1
  46       22       42 1
  47       23       43 1
  48       24       44 1
  49       26       45 1
  50       26       46 1
  51       27       47 1
  52       27       48 1
  53       28       49 1

@<TRIPOS>MOLECULE

  49   53
SMALL
USER_CHARGES
@<TRIPOS>ATOM
   1 C1           3.6831     2.1886    -0.0218 C.3          1    LIG   0.0000
   2 C2           2.3775     1.4103    -0.0133 C.ar         1    LIG   0.0000
   3 C3           2.4069     0.0197    -0.0206 C.ar         1    LIG   0.0000
   4 C4           1.2073    -0.6841    -0.0121 C.ar         1    LIG   0.0000
   5 C5          -0.0116    -0.0145     0.0026 C.ar         1    LIG   0.0000
   6 C6          -0.0175     1.3767     0.0098 C.ar         1    LIG   0.0000
   7 N7          -1.2388     2.0617     0.0249 N.pl3        1    LIG   0.0000
   8 C8          -1.8892     2.4271     1.2920 C.3          1    LIG   0.0000
   9 C9          -3.3919     2.5178     1.0828 C.3          1    LIG   0.0000
  10 N10         -3.6203     3.5280     0.0412 N.pl3        1    LIG   0.0000
  11 C11         -4.7900     4.2980     0.0918 C.ar         1    LIG   0.0000
  12 C12         -4.6518     5.6771     0.1999 C.ar         1    LIG   0.0000
  13 C13         -5.8034     6.4550     0.2514 C.ar         1    LIG   0.0000
  14 C14         -5.6417     7.8910     0.3641 C.2          1    LIG   0.0000
  15 N15         -4.5039     8.5348     0.4259 N.2          1    LIG   0.0000
  16 N16         -4.7778     9.8174     0.5234 N.2          1    LIG   0.0000
  17 N17         -6.0344     9.9644     0.5241 N.2          1    LIG   0.0000
  18 N18         -6.6419     8.8081     0.4272 N.pl3        1    LIG  -1.0000
  19 N19         -7.0185     5.8865     0.1977 N.ar         1    LIG   1.0000
  20 C20         -7.1754     4.5575     0.0936 C.ar         1    LIG   0.0000
  21 C21         -8.4454     3.9914     0.0393 C.ar         1    LIG   0.0000
  22 C22         -8.6168     2.6150    -0.0682 C.ar         1    LIG   0.0000
  23 C23         -7.5079     1.7785    -0.1241 C.ar         1    LIG   0.0000
  24 C24         -6.2414     2.3499    -0.0701 C.ar         1    LIG   0.0000
  25 C25         -6.0590     3.7265     0.0381 C.ar         1    LIG   0.0000
  26 C26         -2.6150     3.7389    -1.0109 C.3          1    LIG   0.0000
  27 C27         -1.8554     2.4451    -1.2524 C.3          1    LIG   0.0000
  28 C28          1.1700     2.1005     0.0019 C.ar         1    LIG   0.0000
  29 H           -7.8299     6.4699     0.2363 H            1    LIG   0.0000
  30 H            4.4521     1.5494    -0.0325 H            1    LIG   0.0000
  31 H            3.7203     2.7684    -0.8357 H            1    LIG   0.0000
  32 H            3.7360     2.7600     0.7972 H            1    LIG   0.0000
  33 H            3.2798    -0.4681    -0.0318 H            1    LIG   0.0000
  34 H            1.2213    -1.6840    -0.0167 H            1    LIG   0.0000
  35 H           -0.8712    -0.5255     0.0078 H            1    LIG   0.0000
  36 H           -1.5418     3.3122     1.6018 H            1    LIG   0.0000
  37 H           -1.6901     1.7310     1.9817 H            1    LIG   0.0000
  38 H           -3.7516     1.6326     0.7875 H            1    LIG   0.0000
  39 H           -3.8410     2.7932     1.9328 H            1    LIG   0.0000
  40 H           -3.7463     6.0995     0.2397 H            1    LIG   0.0000
  41 H           -9.2494     4.5847     0.0784 H            1    LIG   0.0000
  42 H           -9.5378     2.2273    -0.1053 H            1    LIG   0.0000
  43 H           -7.6186     0.7876    -0.2014 H            1    LIG   0.0000
  44 H           -5.4383     1.7554    -0.1101 H            1    LIG   0.0000
  45 H           -1.9758     4.4520    -0.7231 H            1    LIG   0.0000
  46 H           -3.0705     4.0206    -1.8554 H            1    LIG   0.0000
  47 H           -2.4842     1.7301    -1.5582 H            1    LIG   0.0000
  48 H           -1.1488     2.5864    -1.9458 H            1    LIG   0.0000
  49 H            1.1560     3.1004     0.0070 H            1    LIG   0.0000
@<TRIPOS>BOND
   1        1        2 1
   2        2        3 ar
   3        3        4 ar
   4        4        5 ar
   5        5        6 ar
   6        6        7 1
   7        7        8 1
   8        8        9 1
   9        9       10 1
  10       10       11 1
  11       11       12 ar
  12       12       13 ar
  13       13       14 1
  14       14       15 2
  15       15       16 1
  16       16       17 2
  17       17       18 1
  18       18       14 1
  19       13       19 ar
  20       19       20 ar
  21       20       21 ar
  22       21       22 ar
  23       22       23 ar
  24       23       24 ar
  25       24       25 ar
  26       25       11 ar
  27       25       20 ar
  28       10       26 1
  29       26       27 1
  30       27        7 1
  31        6       28 ar
  32       28        2 ar
  33       19       29 1
  34        1       30 1
  35        1       31 1
  36        1       32 1
  37        3       33 1
  38        4       34 1
  39        5       35 1
  40        8       36 1
  41        8       37 1
  42        9       38 1
  43        9       39 1
  44       12       40 1
  45       21       41 1
  46       22       42 1
  47       23       43 1
  48       24       44 1
  49       26       45 1
  50       26       46 1
  51       27       47 1
  52       27       48 1
  53       28       49 1

@<TRIPOS>MOLECULE

  49   53
SMALL
USER_CHARGES
@<TRIPOS>ATOM
   1 C1           3.6831     2.1886    -0.0218 C.3          1    LIG   0.0000
   2 C2           2.3775     1.4103    -0.0133 C.ar         1    LIG   0.0000
   3 C3           2.4069     0.0197    -0.0206 C.ar         1    LIG   0.0000
   4 C4           1.2073    -0.6841    -0.0121 C.ar         1    LIG   0.0000
   5 C5          -0.0116    -0.0145     0.0026 C.ar         1    LIG   0.0000
   6 C6          -0.0175     1.3767     0.0098 C.ar         1    LIG   0.0000
   7 N7          -1.2388     2.0617     0.0249 N.pl3        1    LIG   0.0000
   8 C8          -1.8892     2.4271     1.2920 C.3          1    LIG   0.0000
   9 C9          -3.3919     2.5178     1.0828 C.3          1    LIG   0.0000
  10 N10         -3.6203     3.5280     0.0412 N.pl3        1    LIG   0.0000
  11 C11         -4.7900     4.2980     0.0918 C.ar         1    LIG   0.0000
  12 C12         -6.0072     3.6293     0.0304 C.ar         1    LIG   0.0000
  13 C13         -7.1771     4.3796     0.0794 C.ar         1    LIG   0.0000
  14 C14         -8.4376     3.6670     0.0143 C.2          1    LIG   0.0000
  15 N15         -8.5842     2.3706    -0.0905 N.2          1    LIG   0.0000
  16 N16         -9.8744     2.1177    -0.1203 N.2          1    LIG   0.0000
  17 N17        -10.5037     3.2123    -0.0394 N.2          1    LIG   0.0000
  18 N18         -9.6762     4.2237     0.0480 N.pl3        1    LIG  -1.0000
  19 N19         -7.1305     5.7173     0.1836 N.ar         1    LIG   1.0000
  20 C20         -5.9668     6.3836     0.2442 C.ar         1    LIG   0.0000
  21 C21         -5.9440     7.7707     0.3524 C.ar         1    LIG   0.0000
  22 C22         -4.7423     8.4688     0.4154 C.ar         1    LIG   0.0000
  23 C23         -3.5352     7.7807     0.3711 C.ar         1    LIG   0.0000
  24 C24         -3.5643     6.3947     0.2636 C.ar         1    LIG   0.0000
  25 C25         -4.7618     5.6865     0.1993 C.ar         1    LIG   0.0000
  26 C26         -2.6150     3.7389    -1.0109 C.3          1    LIG   0.0000
  27 C27         -1.8554     2.4451    -1.2524 C.3          1    LIG   0.0000
  28 C28          1.1700     2.1005     0.0019 C.ar         1    LIG   0.0000
  29 H           -7.9872     6.2321     0.2172 H            1    LIG   0.0000
  30 H            4.4521     1.5494    -0.0325 H            1    LIG   0.0000
  31 H            3.7203     2.7684    -0.8357 H            1    LIG   0.0000
  32 H            3.7360     2.7600     0.7972 H            1    LIG   0.0000
  33 H            3.2798    -0.4681    -0.0318 H            1    LIG   0.0000
  34 H            1.2213    -1.6840    -0.0167 H            1    LIG   0.0000
  35 H           -0.8712    -0.5255     0.0078 H            1    LIG   0.0000
  36 H           -1.5418     3.3122     1.6018 H            1    LIG   0.0000
  37 H           -1.6901     1.7310     1.9817 H            1    LIG   0.0000
  38 H           -3.7516     1.6326     0.7875 H            1    LIG   0.0000
  39 H           -3.8410     2.7932     1.9328 H            1    LIG   0.0000
  40 H           -6.0408     2.6329    -0.0471 H            1    LIG   0.0000
  41 H           -6.8070     8.2748     0.3855 H            1    LIG   0.0000
  42 H           -4.7468     9.4659     0.4925 H            1    LIG   0.0000
  43 H           -2.6651     8.2717     0.4156 H            1    LIG   0.0000
  44 H           -2.7005     5.8919     0.2315 H            1    LIG   0.0000
  45 H           -1.9758     4.4520    -0.7231 H            1    LIG   0.0000
  46 H           -3.0705     4.0206    -1.8554 H            1    LIG   0.0000
  47 H           -2.4842     1.7301    -1.5582 H            1    LIG   0.0000
  48 H           -1.1488     2.5864    -1.9458 H            1    LIG   0.0000
  49 H            1.1560     3.1004     0.0070 H            1    LIG   0.0000
@<TRIPOS>BOND
   1        1        2 1
   2        2        3 ar
   3        3        4 ar
   4        4        5 ar
   5        5        6 ar
   6        6        7 1
   7        7        8 1
   8        8        9 1
   9        9       10 1
  10       10       11 1
  11       11       12 ar
  12       12       13 ar
  13       13       14 1
  14       14       15 2
  15       15       16 1
  16       16       17 2
  17       17       18 1
  18       18       14 1
  19       13       19 ar
  20       19       20 ar
  21       20       21 ar
  22       21       22 ar
  23       22       23 ar
  24       23       24 ar
  25       24       25 ar
  26       25       11 ar
  27       25       20 ar
  28       10       26 1
  29       26       27 1
  30       27        7 1
  31        6       28 ar
  32       28        2 ar
  33       19       29 1
  34        1       30 1
  35        1       31 1
  36        1       32 1
  37        3       33 1
  38        4       34 1
  39        5       35 1
  40        8       36 1
  41        8       37 1
  42        9       38 1
  43        9       39 1
  44       12       40 1
  45       21       41 1
  46       22       42 1
  47       23       43 1
  48       24       44 1
  49       26       45 1
  50       26       46 1
  51       27       47 1
  52       27       48 1
  53       28       49 1

@<TRIPOS>MOLECULE

  49   53
SMALL
USER_CHARGES
@<TRIPOS>ATOM
   1 C1           3.6831     2.1886    -0.0218 C.3          1    LIG   0.0000
   2 C2           2.3775     1.4103    -0.0133 C.ar         1    LIG   0.0000
   3 C3           2.4069     0.0197    -0.0206 C.ar         1    LIG   0.0000
   4 C4           1.2073    -0.6841    -0.0121 C.ar         1    LIG   0.0000
   5 C5          -0.0116    -0.0145     0.0026 C.ar         1    LIG   0.0000
   6 C6          -0.0175     1.3767     0.0098 C.ar         1    LIG   0.0000
   7 N7          -1.2388     2.0617     0.0249 N.pl3        1    LIG   0.0000
   8 C8          -1.9134     2.4394    -1.2258 C.3          1    LIG   0.0000
   9 C9          -2.7701     3.6721    -0.9875 C.3          1    LIG   0.0000
  10 N10         -3.7315     3.3291     0.0688 N.pl3        1    LIG   0.0000
  11 C11         -4.9991     3.9261     0.0483 C.ar         1    LIG   0.0000
  12 C12         -5.7988     3.7072    -1.0676 C.ar         1    LIG   0.0000
  13 C13         -7.0595     4.2931    -1.1029 C.ar         1    LIG   0.0000
  14 C14         -7.8804     4.0548    -2.2734 C.2          1    LIG   0.0000
  15 N15         -7.5459     3.3358    -3.3146 N.2          1    LIG   0.0000
  16 N16         -8.5545     3.3644    -4.1580 N.2          1    LIG   0.0000
  17 N17         -9.4773     4.0737    -3.6620 N.2          1    LIG   0.0000
  18 N18         -9.1315     4.5390    -2.4876 N.pl3        1    LIG  -1.0000
  19 N19         -7.4926     5.0513    -0.0831 N.ar         1    LIG   1.0000
  20 C20         -6.7375     5.2762     1.0037 C.ar         1    LIG   0.0000
  21 C21         -7.2085     6.0657     2.0483 C.ar         1    LIG   0.0000
  22 C22         -6.4322     6.3040     3.1780 C.ar         1    LIG   0.0000
  23 C23         -5.1615     5.7490     3.2783 C.ar         1    LIG   0.0000
  24 C24         -4.6966     4.9605     2.2316 C.ar         1    LIG   0.0000
  25 C25         -5.4655     4.7163     1.0963 C.ar         1    LIG   0.0000
  26 C26         -3.3677     2.3504     1.1041 C.3          1    LIG   0.0000
  27 C27         -1.8633     2.3744     1.3176 C.3          1    LIG   0.0000
  28 C28          1.1700     2.1005     0.0019 C.ar         1    LIG   0.0000
  29 H           -8.4038     5.4602    -0.1346 H            1    LIG   0.0000
  30 H            4.4521     1.5494    -0.0325 H            1    LIG   0.0000
  31 H            3.7203     2.7684    -0.8357 H            1    LIG   0.0000
  32 H            3.7360     2.7600     0.7972 H            1    LIG   0.0000
  33 H            3.2798    -0.4681    -0.0318 H            1    LIG   0.0000
  34 H            1.2213    -1.6840    -0.0167 H            1    LIG   0.0000
  35 H           -0.8712    -0.5255     0.0078 H            1    LIG   0.0000
  36 H           -2.4934     1.6847    -1.5327 H            1    LIG   0.0000
  37 H           -1.2286     2.6398    -1.9265 H            1    LIG   0.0000
  38 H           -2.1968     4.4374    -0.6948 H            1    LIG   0.0000
  39 H           -3.2552     3.9206    -1.8259 H            1    LIG   0.0000
  40 H           -5.4752     3.1421    -1.8265 H            1    LIG   0.0000
  41 H           -8.1214     6.4690     1.9859 H            1    LIG   0.0000
  42 H           -6.7883     6.8746     3.9180 H            1    LIG   0.0000
  43 H           -4.5944     5.9133     4.0853 H            1    LIG   0.0000
  44 H           -3.7839     4.5572     2.2958 H            1    LIG   0.0000
  45 H           -3.6483     1.4361     0.8118 H            1    LIG   0.0000
  46 H           -3.8296     2.5831     1.9599 H            1    LIG   0.0000
  47 H           -1.5752     3.2805     1.6275 H            1    LIG   0.0000
  48 H           -1.6025     1.6905     1.9990 H            1    LIG   0.0000
  49 H            1.1560     3.1004     0.0070 H            1    LIG   0.0000
@<TRIPOS>BOND
   1        1        2 1
   2        2        3 ar
   3        3        4 ar
   4        4        5 ar
   5        5        6 ar
   6        6        7 1
   7        7        8 1
   8        8        9 1
   9        9       10 1
  10       10       11 1
  11       11       12 ar
  12       12       13 ar
  13       13       14 1
  14       14       15 2
  15       15       16 1
  16       16       17 2
  17       17       18 1
  18       18       14 1
  19       13       19 ar
  20       19       20 ar
  21       20       21 ar
  22       21       22 ar
  23       22       23 ar
  24       23       24 ar
  25       24       25 ar
  26       25       11 ar
  27       25       20 ar
  28       10       26 1
  29       26       27 1
  30       27        7 1
  31        6       28 ar
  32       28        2 ar
  33       19       29 1
  34        1       30 1
  35        1       31 1
  36        1       32 1
  37        3       33 1
  38        4       34 1
  39        5       35 1
  40        8       36 1
  41        8       37 1
  42        9       38 1
  43        9       39 1
  44       12       40 1
  45       21       41 1
  46       22       42 1
  47       23       43 1
  48       24       44 1
  49       26       45 1
  50       26       46 1
  51       27       47 1
  52       27       48 1
  53       28       49 1

@<TRIPOS>MOLECULE

  49   53
SMALL
USER_CHARGES
@<TRIPOS>ATOM
   1 C1           3.6831     2.1886    -0.0218 C.3          1    LIG   0.0000
   2 C2           2.3775     1.4103    -0.0133 C.ar         1    LIG   0.0000
   3 C3           2.4069     0.0197    -0.0206 C.ar         1    LIG   0.0000
   4 C4           1.2073    -0.6841    -0.0121 C.ar         1    LIG   0.0000
   5 C5          -0.0116    -0.0145     0.0026 C.ar         1    LIG   0.0000
   6 C6          -0.0175     1.3767     0.0098 C.ar         1    LIG   0.0000
   7 N7          -1.2388     2.0617     0.0249 N.pl3        1    LIG   0.0000
   8 C8          -1.9134     2.4394    -1.2258 C.3          1    LIG   0.0000
   9 C9          -2.7701     3.6721    -0.9875 C.3          1    LIG   0.0000
  10 N10         -3.7315     3.3291     0.0688 N.pl3        1    LIG   0.0000
  11 C11         -4.9991     3.9261     0.0483 C.ar         1    LIG   0.0000
  12 C12         -5.3689     4.6958     1.1454 C.ar         1    LIG   0.0000
  13 C13         -6.6239     5.2948     1.1401 C.ar         1    LIG   0.0000
  14 C14         -6.9937     6.0939     2.2914 C.2          1    LIG   0.0000
  15 N15         -6.2541     6.3070     3.3499 N.2          1    LIG   0.0000
  16 N16         -6.9405     7.0767     4.1660 N.2          1    LIG   0.0000
  17 N17         -8.0615     7.3300     3.6370 N.2          1    LIG   0.0000
  18 N18         -8.1690     6.7524     2.4664 N.pl3        1    LIG  -1.0000
  19 N19         -7.4571     5.1330     0.0998 N.ar         1    LIG   1.0000
  20 C20         -7.1211     4.3942    -0.9694 C.ar         1    LIG   0.0000
  21 C21         -8.0018     4.2413    -2.0358 C.ar         1    LIG   0.0000
  22 C22         -7.6614     3.4771    -3.1474 C.ar         1    LIG   0.0000
  23 C23         -6.4222     2.8500    -3.2072 C.ar         1    LIG   0.0000
  24 C24         -5.5462     3.0069    -2.1388 C.ar         1    LIG   0.0000
  25 C25         -5.8774     3.7693    -1.0213 C.ar         1    LIG   0.0000
  26 C26         -3.3677     2.3504     1.1041 C.3          1    LIG   0.0000
  27 C27         -1.8633     2.3744     1.3176 C.3          1    LIG   0.0000
  28 C28          1.1700     2.1005     0.0019 C.ar         1    LIG   0.0000
  29 H           -8.3536     5.5754     0.1221 H            1    LIG   0.0000
  30 H            4.4521     1.5494    -0.0325 H            1    LIG   0.0000
  31 H            3.7203     2.7684    -0.8357 H            1    LIG   0.0000
  32 H            3.7360     2.7600     0.7972 H            1    LIG   0.0000
  33 H            3.2798    -0.4681    -0.0318 H            1    LIG   0.0000
  34 H            1.2213    -1.6840    -0.0167 H            1    LIG   0.0000
  35 H           -0.8712    -0.5255     0.0078 H            1    LIG   0.0000
  36 H           -2.4934     1.6847    -1.5327 H            1    LIG   0.0000
  37 H           -1.2286     2.6398    -1.9265 H            1    LIG   0.0000
  38 H           -2.1968     4.4374    -0.6948 H            1    LIG   0.0000
  39 H           -3.2552     3.9206    -1.8259 H            1    LIG   0.0000
  40 H           -4.7474     4.8159     1.9196 H            1    LIG   0.0000
  41 H           -8.8954     4.6888    -2.0025 H            1    LIG   0.0000
  42 H           -8.3084     3.3789    -3.9036 H            1    LIG   0.0000
  43 H           -6.1664     2.2982    -4.0010 H            1    LIG   0.0000
  44 H           -4.6525     2.5595    -2.1739 H            1    LIG   0.0000
  45 H           -3.6483     1.4361     0.8118 H            1    LIG   0.0000
  46 H           -3.8296     2.5831     1.9599 H            1    LIG   0.0000
  47 H           -1.5752     3.2805     1.6275 H            1    LIG   0.0000
  48 H           -1.6025     1.6905     1.9990 H            1    LIG   0.0000
  49 H            1.1560     3.1004     0.0070 H            1    LIG   0.0000
@<TRIPOS>BOND
   1        1        2 1
   2        2        3 ar
   3        3        4 ar
   4        4        5 ar
   5        5        6 ar
   6        6        7 1
   7        7        8 1
   8        8        9 1
   9        9       10 1
  10       10       11 1
  11       11       12 ar
  12       12       13 ar
  13       13       14 1
  14       14       15 2
  15       15       16 1
  16       16       17 2
  17       17       18 1
  18       18       14 1
  19       13       19 ar
  20       19       20 ar
  21       20       21 ar
  22       21       22 ar
  23       22       23 ar
  24       23       24 ar
  25       24       25 ar
  26       25       11 ar
  27       25       20 ar
  28       10       26 1
  29       26       27 1
  30       27        7 1
  31        6       28 ar
  32       28        2 ar
  33       19       29 1
  34        1       30 1
  35        1       31 1
  36        1       32 1
  37        3       33 1
  38        4       34 1
  39        5       35 1
  40        8       36 1
  41        8       37 1
  42        9       38 1
  43        9       39 1
  44       12       40 1
  45       21       41 1
  46       22       42 1
  47       23       43 1
  48       24       44 1
  49       26       45 1
  50       26       46 1
  51       27       47 1
  52       27       48 1
  53       28       49 1

@<TRIPOS>MOLECULE

  49   53
SMALL
USER_CHARGES
@<TRIPOS>ATOM
   1 C1           3.6831     2.1886    -0.0218 C.3          1    LIG   0.0000
   2 C2           2.3775     1.4103    -0.0133 C.ar         1    LIG   0.0000
   3 C3           2.4069     0.0197    -0.0206 C.ar         1    LIG   0.0000
   4 C4           1.2073    -0.6841    -0.0121 C.ar         1    LIG   0.0000
   5 C5          -0.0116    -0.0145     0.0026 C.ar         1    LIG   0.0000
   6 C6          -0.0175     1.3767     0.0098 C.ar         1    LIG   0.0000
   7 N7          -1.2388     2.0617     0.0249 N.pl3        1    LIG   0.0000
   8 C8          -1.2854     3.5313     0.0325 C.3          1    LIG   0.0000
   9 C9          -2.5685     3.9944     0.7031 C.3          1    LIG   0.0000
  10 N10         -3.6837     3.4172    -0.0589 N.pl3        1    LIG   0.0000
  11 C11         -4.8859     4.1322    -0.1432 C.ar         1    LIG   0.0000
  12 C12         -5.3322     4.4996    -1.4076 C.ar         1    LIG   0.0000
  13 C13         -6.5236     5.2097    -1.5078 C.ar         1    LIG   0.0000
  14 C14         -6.9747     5.5849    -2.8331 C.2          1    LIG   0.0000
  15 N15         -8.0672     6.2481    -3.1152 N.2          1    LIG   0.0000
  16 N16         -8.1213     6.3877    -4.4218 N.2          1    LIG   0.0000
  17 N17         -7.1049     5.8323    -4.9309 N.2          1    LIG   0.0000
  18 N18         -6.3422     5.3093    -4.0033 N.pl3        1    LIG  -1.0000
  19 N19         -7.2250     5.5318    -0.4092 N.ar         1    LIG   1.0000
  20 C20         -6.8130     5.1877     0.8211 C.ar         1    LIG   0.0000
  21 C21         -7.5574     5.5328     1.9450 C.ar         1    LIG   0.0000
  22 C22         -7.1373     5.1803     3.2236 C.ar         1    LIG   0.0000
  23 C23         -5.9548     4.4700     3.3959 C.ar         1    LIG   0.0000
  24 C24         -5.2155     4.1275     2.2691 C.ar         1    LIG   0.0000
  25 C25         -5.6270     4.4759     0.9849 C.ar         1    LIG   0.0000
  26 C26         -3.5161     2.1264    -0.7430 C.3          1    LIG   0.0000
  27 C27         -2.4883     1.2891    -0.0002 C.3          1    LIG   0.0000
  28 C28          1.1700     2.1005     0.0019 C.ar         1    LIG   0.0000
  29 H           -8.0787     6.0426    -0.5103 H            1    LIG   0.0000
  30 H            4.4521     1.5494    -0.0325 H            1    LIG   0.0000
  31 H            3.7203     2.7684    -0.8357 H            1    LIG   0.0000
  32 H            3.7360     2.7600     0.7972 H            1    LIG   0.0000
  33 H            3.2798    -0.4681    -0.0318 H            1    LIG   0.0000
  34 H            1.2213    -1.6840    -0.0167 H            1    LIG   0.0000
  35 H           -0.8712    -0.5255     0.0078 H            1    LIG   0.0000
  36 H           -1.2597     3.8704    -0.9079 H            1    LIG   0.0000
  37 H           -0.4986     3.8871     0.5368 H            1    LIG   0.0000
  38 H           -2.5965     3.6730     1.6497 H            1    LIG   0.0000
  39 H           -2.6227     4.9928     0.6883 H            1    LIG   0.0000
  40 H           -4.8091     4.2590    -2.2252 H            1    LIG   0.0000
  41 H           -8.4097     6.0433     1.8315 H            1    LIG   0.0000
  42 H           -7.6861     5.4380     4.0189 H            1    LIG   0.0000
  43 H           -5.6427     4.2111     4.3100 H            1    LIG   0.0000
  44 H           -4.3638     3.6162     2.3841 H            1    LIG   0.0000
  45 H           -3.2037     2.2838    -1.6798 H            1    LIG   0.0000
  46 H           -4.3909     1.6422    -0.7603 H            1    LIG   0.0000
  47 H           -2.8005     1.1112     0.9331 H            1    LIG   0.0000
  48 H           -2.3453     0.4207    -0.4750 H            1    LIG   0.0000
  49 H            1.1560     3.1004     0.0070 H            1    LIG   0.0000
@<TRIPOS>BOND
   1        1        2 1
   2        2        3 ar
   3        3        4 ar
   4        4        5 ar
   5        5        6 ar
   6        6        7 1
   7        7        8 1
   8        8        9 1
   9        9       10 1
  10       10       11 1
  11       11       12 ar
  12       12       13 ar
  13       13       14 1
  14       14       15 2
  15       15       16 1
  16       16       17 2
  17       17       18 1
  18       18       14 1
  19       13       19 ar
  20       19       20 ar
  21       20       21 ar
  22       21       22 ar
  23       22       23 ar
  24       23       24 ar
  25       24       25 ar
  26       25       11 ar
  27       25       20 ar
  28       10       26 1
  29       26       27 1
  30       27        7 1
  31        6       28 ar
  32       28        2 ar
  33       19       29 1
  34        1       30 1
  35        1       31 1
  36        1       32 1
  37        3       33 1
  38        4       34 1
  39        5       35 1
  40        8       36 1
  41        8       37 1
  42        9       38 1
  43        9       39 1
  44       12       40 1
  45       21       41 1
  46       22       42 1
  47       23       43 1
  48       24       44 1
  49       26       45 1
  50       26       46 1
  51       27       47 1
  52       27       48 1
  53       28       49 1

@<TRIPOS>MOLECULE

  49   53
SMALL
USER_CHARGES
@<TRIPOS>ATOM
   1 C1           3.6831     2.1886    -0.0218 C.3          1    LIG   0.0000
   2 C2           2.3775     1.4103    -0.0133 C.ar         1    LIG   0.0000
   3 C3           2.4069     0.0197    -0.0206 C.ar         1    LIG   0.0000
   4 C4           1.2073    -0.6841    -0.0121 C.ar         1    LIG   0.0000
   5 C5          -0.0116    -0.0145     0.0026 C.ar         1    LIG   0.0000
   6 C6          -0.0175     1.3767     0.0098 C.ar         1    LIG   0.0000
   7 N7          -1.2388     2.0617     0.0249 N.pl3        1    LIG   0.0000
   8 C8          -1.2854     3.5313     0.0325 C.3          1    LIG   0.0000
   9 C9          -2.5685     3.9944     0.7031 C.3          1    LIG   0.0000
  10 N10         -3.6837     3.4172    -0.0589 N.pl3        1    LIG   0.0000
  11 C11         -4.8859     4.1322    -0.1432 C.ar         1    LIG   0.0000
  12 C12         -5.5487     4.4244     1.0433 C.ar         1    LIG   0.0000
  13 C13         -6.7433     5.1334     0.9762 C.ar         1    LIG   0.0000
  14 C14         -7.4215     5.4299     2.2223 C.2          1    LIG   0.0000
  15 N15         -8.5470     6.0858     2.3488 N.2          1    LIG   0.0000
  16 N16         -8.8296     6.1465     3.6318 N.2          1    LIG   0.0000
  17 N17         -7.9161     5.5541     4.2763 N.2          1    LIG   0.0000
  18 N18         -7.0025     5.0801     3.4663 N.pl3        1    LIG  -1.0000
  19 N19         -7.2429     5.5256    -0.2067 N.ar         1    LIG   1.0000
  20 C20         -6.6201     5.2542    -1.3644 C.ar         1    LIG   0.0000
  21 C21         -7.1576     5.6715    -2.5781 C.ar         1    LIG   0.0000
  22 C22         -6.5187     5.3942    -3.7825 C.ar         1    LIG   0.0000
  23 C23         -5.3208     4.6887    -3.7878 C.ar         1    LIG   0.0000
  24 C24         -4.7883     4.2749    -2.5718 C.ar         1    LIG   0.0000
  25 C25         -5.4202     4.5469    -1.3608 C.ar         1    LIG   0.0000
  26 C26         -3.5161     2.1264    -0.7430 C.3          1    LIG   0.0000
  27 C27         -2.4883     1.2891    -0.0002 C.3          1    LIG   0.0000
  28 C28          1.1700     2.1005     0.0019 C.ar         1    LIG   0.0000
  29 H           -8.1036     6.0344    -0.2257 H            1    LIG   0.0000
  30 H            4.4521     1.5494    -0.0325 H            1    LIG   0.0000
  31 H            3.7203     2.7684    -0.8357 H            1    LIG   0.0000
  32 H            3.7360     2.7600     0.7972 H            1    LIG   0.0000
  33 H            3.2798    -0.4681    -0.0318 H            1    LIG   0.0000
  34 H            1.2213    -1.6840    -0.0167 H            1    LIG   0.0000
  35 H           -0.8712    -0.5255     0.0078 H            1    LIG   0.0000
  36 H           -1.2597     3.8704    -0.9079 H            1    LIG   0.0000
  37 H           -0.4986     3.8871     0.5368 H            1    LIG   0.0000
  38 H           -2.5965     3.6730     1.6497 H            1    LIG   0.0000
  39 H           -2.6227     4.9928     0.6883 H            1    LIG   0.0000
  40 H           -5.1756     4.1320     1.9238 H            1    LIG   0.0000
  41 H           -8.0186     6.1800    -2.5849 H            1    LIG   0.0000
  42 H           -6.9212     5.7023    -4.6445 H            1    LIG   0.0000
  43 H           -4.8524     4.4834    -4.6471 H            1    LIG   0.0000
  44 H           -3.9268     3.7672    -2.5666 H            1    LIG   0.0000
  45 H           -3.2037     2.2838    -1.6798 H            1    LIG   0.0000
  46 H           -4.3909     1.6422    -0.7603 H            1    LIG   0.0000
  47 H           -2.8005     1.1112     0.9331 H            1    LIG   0.0000
  48 H           -2.3453     0.4207    -0.4750 H            1    LIG   0.0000
  49 H            1.1560     3.1004     0.0070 H            1    LIG   0.0000
@<TRIPOS>BOND
   1        1        2 1
   2        2        3 ar
   3        3        4 ar
   4        4        5 ar
   5        5        6 ar
   6        6        7 1
   7        7        8 1
   8        8        9 1
   9        9       10 1
  10       10       11 1
  11       11       12 ar
  12       12       13 ar
  13       13       14 1
  14       14       15 2
  15       15       16 1
  16       16       17 2
  17       17       18 1
  18       18       14 1
  19       13       19 ar
  20       19       20 ar
  21       20       21 ar
  22       21       22 ar
  23       22       23 ar
  24       23       24 ar
  25       24       25 ar
  26       25       11 ar
  27       25       20 ar
  28       10       26 1
  29       26       27 1
  30       27        7 1
  31        6       28 ar
  32       28        2 ar
  33       19       29 1
  34        1       30 1
  35        1       31 1
  36        1       32 1
  37        3       33 1
  38        4       34 1
  39        5       35 1
  40        8       36 1
  41        8       37 1
  42        9       38 1
  43        9       39 1
  44       12       40 1
  45       21       41 1
  46       22       42 1
  47       23       43 1
  48       24       44 1
  49       26       45 1
  50       26       46 1
  51       27       47 1
  52       27       48 1
  53       28       49 1

@<TRIPOS>MOLECULE

  49   53
SMALL
USER_CHARGES
@<TRIPOS>ATOM
   1 C1           3.6831     2.1886    -0.0218 C.3          1    LIG   0.0000
   2 C2           2.3775     1.4103    -0.0133 C.ar         1    LIG   0.0000
   3 C3           2.4069     0.0197    -0.0206 C.ar         1    LIG   0.0000
   4 C4           1.2073    -0.6841    -0.0121 C.ar         1    LIG   0.0000
   5 C5          -0.0116    -0.0145     0.0026 C.ar         1    LIG   0.0000
   6 C6          -0.0175     1.3767     0.0098 C.ar         1    LIG   0.0000
   7 N7          -1.2379     2.0611     0.0249 N.pl3        1    LIG   0.0000
   8 C8          -2.4862     1.2872     0.0331 C.3          1    LIG   0.0000
   9 C9          -3.5213     2.1071    -0.7200 C.3          1    LIG   0.0000
  10 N10         -3.7003     3.4151    -0.0713 N.pl3        1    LIG   0.0000
  11 C11         -4.9090     4.1163    -0.1752 C.ar         1    LIG   0.0000
  12 C12         -4.8763     5.3783    -0.7574 C.ar         1    LIG   0.0000
  13 C13         -6.0679     6.0869    -0.8675 C.ar         1    LIG   0.0000
  14 C14         -6.0162     7.4009    -1.4770 C.2          1    LIG   0.0000
  15 N15         -7.0335     8.2028    -1.6645 N.2          1    LIG   0.0000
  16 N16         -6.5790     9.2925    -2.2437 N.2          1    LIG   0.0000
  17 N17         -5.3308     9.1719    -2.4111 N.2          1    LIG   0.0000
  18 N18         -4.9060     8.0188    -1.9577 N.pl3        1    LIG  -1.0000
  19 N19         -7.2212     5.5634    -0.4222 N.ar         1    LIG   1.0000
  20 C20         -7.2761     4.3473     0.1433 C.ar         1    LIG   0.0000
  21 C21         -8.4837     3.8257     0.5972 C.ar         1    LIG   0.0000
  22 C22         -8.5492     2.5664     1.1848 C.ar         1    LIG   0.0000
  23 C23         -7.3952     1.8043     1.3266 C.ar         1    LIG   0.0000
  24 C24         -6.1916     2.3304     0.8706 C.ar         1    LIG   0.0000
  25 C25         -6.1152     3.5902     0.2816 C.ar         1    LIG   0.0000
  26 C26         -2.5786     4.0042     0.6724 C.3          1    LIG   0.0000
  27 C27         -1.2987     3.5306     0.0017 C.3          1    LIG   0.0000
  28 C28          1.1700     2.1005     0.0019 C.ar         1    LIG   0.0000
  29 H           -8.0634     6.0947    -0.5144 H            1    LIG   0.0000
  30 H            4.4521     1.5494    -0.0325 H            1    LIG   0.0000
  31 H            3.7203     2.7684    -0.8357 H            1    LIG   0.0000
  32 H            3.7360     2.7600     0.7972 H            1    LIG   0.0000
  33 H            3.2798    -0.4681    -0.0318 H            1    LIG   0.0000
  34 H            1.2213    -1.6840    -0.0167 H            1    LIG   0.0000
  35 H           -0.8712    -0.5255     0.0078 H            1    LIG   0.0000
  36 H           -2.7885     1.1327     0.9738 H            1    LIG   0.0000
  37 H           -2.3480     0.4073    -0.4213 H            1    LIG   0.0000
  38 H           -3.2132     2.2444    -1.6615 H            1    LIG   0.0000
  39 H           -4.3931     1.6173    -0.7227 H            1    LIG   0.0000
  40 H           -4.0167     5.7672    -1.0889 H            1    LIG   0.0000
  41 H           -9.3195     4.3660     0.4993 H            1    LIG   0.0000
  42 H           -9.4266     2.2092     1.5051 H            1    LIG   0.0000
  43 H           -7.4299     0.8978     1.7473 H            1    LIG   0.0000
  44 H           -5.3568     1.7887     0.9684 H            1    LIG   0.0000
  45 H           -2.6002     3.6987     1.6243 H            1    LIG   0.0000
  46 H           -2.6330     5.0022     0.6412 H            1    LIG   0.0000
  47 H           -1.2834     3.8485    -0.9463 H            1    LIG   0.0000
  48 H           -0.5101     3.9032     0.4910 H            1    LIG   0.0000
  49 H            1.1560     3.1004     0.0070 H            1    LIG   0.0000
@<TRIPOS>BOND
   1        1        2 1
   2        2        3 ar
   3        3        4 ar
   4        4        5 ar
   5        5        6 ar
   6        6        7 1
   7        7        8 1
   8        8        9 1
   9        9       10 1
  10       10       11 1
  11       11       12 ar
  12       12       13 ar
  13       13       14 1
  14       14       15 2
  15       15       16 1
  16       16       17 2
  17       17       18 1
  18       18       14 1
  19       13       19 ar
  20       19       20 ar
  21       20       21 ar
  22       21       22 ar
  23       22       23 ar
  24       23       24 ar
  25       24       25 ar
  26       25       11 ar
  27       25       20 ar
  28       10       26 1
  29       26       27 1
  30       27        7 1
  31        6       28 ar
  32       28        2 ar
  33       19       29 1
  34        1       30 1
  35        1       31 1
  36        1       32 1
  37        3       33 1
  38        4       34 1
  39        5       35 1
  40        8       36 1
  41        8       37 1
  42        9       38 1
  43        9       39 1
  44       12       40 1
  45       21       41 1
  46       22       42 1
  47       23       43 1
  48       24       44 1
  49       26       45 1
  50       26       46 1
  51       27       47 1
  52       27       48 1
  53       28       49 1

@<TRIPOS>MOLECULE

  49   53
SMALL
USER_CHARGES
@<TRIPOS>ATOM
   1 C1           3.6831     2.1886    -0.0218 C.3          1    LIG   0.0000
   2 C2           2.3775     1.4103    -0.0133 C.ar         1    LIG   0.0000
   3 C3           2.4069     0.0197    -0.0206 C.ar         1    LIG   0.0000
   4 C4           1.2073    -0.6841    -0.0121 C.ar         1    LIG   0.0000
   5 C5          -0.0116    -0.0145     0.0026 C.ar         1    LIG   0.0000
   6 C6          -0.0175     1.3767     0.0098 C.ar         1    LIG   0.0000
   7 N7          -1.2379     2.0611     0.0249 N.pl3        1    LIG   0.0000
   8 C8          -1.8449     2.4023     1.3182 C.3          1    LIG   0.0000
   9 C9          -3.3522     2.3680     1.1233 C.3          1    LIG   0.0000
  10 N10         -3.7492     3.3247     0.0788 N.pl3        1    LIG   0.0000
  11 C11         -5.0251     3.9039     0.0736 C.ar         1    LIG   0.0000
  12 C12         -5.3959     4.6609     1.1792 C.ar         1    LIG   0.0000
  13 C13         -6.6592     5.2422     1.1891 C.ar         1    LIG   0.0000
  14 C14         -7.0299     6.0281     2.3491 C.2          1    LIG   0.0000
  15 N15         -8.1695     6.6466     2.5274 N.2          1    LIG   0.0000
  16 N16         -8.1179     7.2453     3.6973 N.2          1    LIG   0.0000
  17 N17         -6.9916     7.0101     4.2234 N.2          1    LIG   0.0000
  18 N18         -6.2574     6.2571     3.4428 N.pl3        1    LIG  -1.0000
  19 N19         -7.4992     5.0758     0.1550 N.ar         1    LIG   1.0000
  20 C20         -7.1624     4.3491    -0.9222 C.ar         1    LIG   0.0000
  21 C21         -8.0502     4.1912    -1.9819 C.ar         1    LIG   0.0000
  22 C22         -7.7091     3.4395    -3.1018 C.ar         1    LIG   0.0000
  23 C23         -6.4618     2.8303    -3.1767 C.ar         1    LIG   0.0000
  24 C24         -5.5786     2.9922    -2.1150 C.ar         1    LIG   0.0000
  25 C25         -5.9105     3.7421    -0.9893 C.ar         1    LIG   0.0000
  26 C26         -2.7969     3.6517    -0.9909 C.3          1    LIG   0.0000
  27 C27         -1.9379     2.4177    -1.2186 C.3          1    LIG   0.0000
  28 C28          1.1700     2.1005     0.0019 C.ar         1    LIG   0.0000
  29 H           -8.4016     5.5055     0.1883 H            1    LIG   0.0000
  30 H            4.4521     1.5494    -0.0325 H            1    LIG   0.0000
  31 H            3.7203     2.7684    -0.8357 H            1    LIG   0.0000
  32 H            3.7360     2.7600     0.7972 H            1    LIG   0.0000
  33 H            3.2798    -0.4681    -0.0318 H            1    LIG   0.0000
  34 H            1.2213    -1.6840    -0.0167 H            1    LIG   0.0000
  35 H           -0.8712    -0.5255     0.0078 H            1    LIG   0.0000
  36 H           -1.5560     3.3163     1.6029 H            1    LIG   0.0000
  37 H           -1.5729     1.7355     2.0120 H            1    LIG   0.0000
  38 H           -3.6295     1.4468     0.8507 H            1    LIG   0.0000
  39 H           -3.8023     2.6110     1.9826 H            1    LIG   0.0000
  40 H           -4.7693     4.7843     1.9488 H            1    LIG   0.0000
  41 H           -8.9497     4.6259    -1.9377 H            1    LIG   0.0000
  42 H           -8.3613     3.3374    -3.8529 H            1    LIG   0.0000
  43 H           -6.2054     2.2875    -3.9765 H            1    LIG   0.0000
  44 H           -4.6792     2.5576    -2.1610 H            1    LIG   0.0000
  45 H           -2.2230     4.4228    -0.7152 H            1    LIG   0.0000
  46 H           -3.2897     3.8858    -1.8289 H            1    LIG   0.0000
  47 H           -2.5202     1.6556    -1.5019 H            1    LIG   0.0000
  48 H           -1.2664     2.6082    -1.9347 H            1    LIG   0.0000
  49 H            1.1560     3.1004     0.0070 H            1    LIG   0.0000
@<TRIPOS>BOND
   1        1        2 1
   2        2        3 ar
   3        3        4 ar
   4        4        5 ar
   5        5        6 ar
   6        6        7 1
   7        7        8 1
   8        8        9 1
   9        9       10 1
  10       10       11 1
  11       11       12 ar
  12       12       13 ar
  13       13       14 1
  14       14       15 2
  15       15       16 1
  16       16       17 2
  17       17       18 1
  18       18       14 1
  19       13       19 ar
  20       19       20 ar
  21       20       21 ar
  22       21       22 ar
  23       22       23 ar
  24       23       24 ar
  25       24       25 ar
  26       25       11 ar
  27       25       20 ar
  28       10       26 1
  29       26       27 1
  30       27        7 1
  31        6       28 ar
  32       28        2 ar
  33       19       29 1
  34        1       30 1
  35        1       31 1
  36        1       32 1
  37        3       33 1
  38        4       34 1
  39        5       35 1
  40        8       36 1
  41        8       37 1
  42        9       38 1
  43        9       39 1
  44       12       40 1
  45       21       41 1
  46       22       42 1
  47       23       43 1
  48       24       44 1
  49       26       45 1
  50       26       46 1
  51       27       47 1
  52       27       48 1
  53       28       49 1

@<TRIPOS>MOLECULE

  49   53
SMALL
USER_CHARGES
@<TRIPOS>ATOM
   1 C1           3.6831     2.1886    -0.0218 C.3          1    LIG   0.0000
   2 C2           2.3775     1.4103    -0.0133 C.ar         1    LIG   0.0000
   3 C3           2.4069     0.0197    -0.0206 C.ar         1    LIG   0.0000
   4 C4           1.2073    -0.6841    -0.0121 C.ar         1    LIG   0.0000
   5 C5          -0.0116    -0.0145     0.0026 C.ar         1    LIG   0.0000
   6 C6          -0.0175     1.3767     0.0098 C.ar         1    LIG   0.0000
   7 N7          -1.2379     2.0611     0.0249 N.pl3        1    LIG   0.0000
   8 C8          -1.8449     2.4023     1.3182 C.3          1    LIG   0.0000
   9 C9          -3.3522     2.3680     1.1233 C.3          1    LIG   0.0000
  10 N10         -3.7492     3.3247     0.0788 N.pl3        1    LIG   0.0000
  11 C11         -5.0251     3.9039     0.0736 C.ar         1    LIG   0.0000
  12 C12         -5.8315     3.6815    -1.0367 C.ar         1    LIG   0.0000
  13 C13         -7.1006     4.2498    -1.0569 C.ar         1    LIG   0.0000
  14 C14         -7.9284     4.0080    -2.2218 C.2          1    LIG   0.0000
  15 N15         -9.1428     4.4584    -2.4098 N.2          1    LIG   0.0000
  16 N16         -9.5517     4.0219    -3.5811 N.2          1    LIG   0.0000
  17 N17         -8.6298     3.3272    -4.0988 N.2          1    LIG   0.0000
  18 N18         -7.5849     3.2724    -3.3110 N.pl3        1    LIG  -1.0000
  19 N19         -7.5352     4.9949    -0.0281 N.ar         1    LIG   1.0000
  20 C20         -6.7737     5.2229     1.0536 C.ar         1    LIG   0.0000
  21 C21         -7.2463     5.9985     2.1077 C.ar         1    LIG   0.0000
  22 C22         -6.4635     6.2400     3.2322 C.ar         1    LIG   0.0000
  23 C23         -5.1844     5.7022     3.3175 C.ar         1    LIG   0.0000
  24 C24         -4.7178     4.9275     2.2613 C.ar         1    LIG   0.0000
  25 C25         -5.4932     4.6803     1.1311 C.ar         1    LIG   0.0000
  26 C26         -2.7969     3.6517    -0.9909 C.3          1    LIG   0.0000
  27 C27         -1.9379     2.4177    -1.2186 C.3          1    LIG   0.0000
  28 C28          1.1700     2.1005     0.0019 C.ar         1    LIG   0.0000
  29 H           -8.4523     5.3913    -0.0688 H            1    LIG   0.0000
  30 H            4.4521     1.5494    -0.0325 H            1    LIG   0.0000
  31 H            3.7203     2.7684    -0.8357 H            1    LIG   0.0000
  32 H            3.7360     2.7600     0.7972 H            1    LIG   0.0000
  33 H            3.2798    -0.4681    -0.0318 H            1    LIG   0.0000
  34 H            1.2213    -1.6840    -0.0167 H            1    LIG   0.0000
  35 H           -0.8712    -0.5255     0.0078 H            1    LIG   0.0000
  36 H           -1.5560     3.3163     1.6029 H            1    LIG   0.0000
  37 H           -1.5729     1.7355     2.0120 H            1    LIG   0.0000
  38 H           -3.6295     1.4468     0.8507 H            1    LIG   0.0000
  39 H           -3.8023     2.6110     1.9826 H            1    LIG   0.0000
  40 H           -5.5068     3.1262    -1.8024 H            1    LIG   0.0000
  41 H           -8.1653     6.3895     2.0562 H            1    LIG   0.0000
  42 H           -6.8210     6.8004     3.9793 H            1    LIG   0.0000
  43 H           -4.6125     5.8688     4.1207 H            1    LIG   0.0000
  44 H           -3.7989     4.5366     2.3147 H            1    LIG   0.0000
  45 H           -2.2230     4.4228    -0.7152 H            1    LIG   0.0000
  46 H           -3.2897     3.8858    -1.8289 H            1    LIG   0.0000
  47 H           -2.5202     1.6556    -1.5019 H            1    LIG   0.0000
  48 H           -1.2664     2.6082    -1.9347 H            1    LIG   0.0000
  49 H            1.1560     3.1004     0.0070 H            1    LIG   0.0000
@<TRIPOS>BOND
   1        1        2 1
   2        2        3 ar
   3        3        4 ar
   4        4        5 ar
   5        5        6 ar
   6        6        7 1
   7        7        8 1
   8        8        9 1
   9        9       10 1
  10       10       11 1
  11       11       12 ar
  12       12       13 ar
  13       13       14 1
  14       14       15 2
  15       15       16 1
  16       16       17 2
  17       17       18 1
  18       18       14 1
  19       13       19 ar
  20       19       20 ar
  21       20       21 ar
  22       21       22 ar
  23       22       23 ar
  24       23       24 ar
  25       24       25 ar
  26       25       11 ar
  27       25       20 ar
  28       10       26 1
  29       26       27 1
  30       27        7 1
  31        6       28 ar
  32       28        2 ar
  33       19       29 1
  34        1       30 1
  35        1       31 1
  36        1       32 1
  37        3       33 1
  38        4       34 1
  39        5       35 1
  40        8       36 1
  41        8       37 1
  42        9       38 1
  43        9       39 1
  44       12       40 1
  45       21       41 1
  46       22       42 1
  47       23       43 1
  48       24       44 1
  49       26       45 1
  50       26       46 1
  51       27       47 1
  52       27       48 1
  53       28       49 1

@<TRIPOS>MOLECULE

  49   53
SMALL
USER_CHARGES
@<TRIPOS>ATOM
   1 C1           3.6831     2.1886    -0.0218 C.3          1    LIG   0.0000
   2 C2           2.3775     1.4103    -0.0133 C.ar         1    LIG   0.0000
   3 C3           2.4069     0.0197    -0.0206 C.ar         1    LIG   0.0000
   4 C4           1.2073    -0.6841    -0.0121 C.ar         1    LIG   0.0000
   5 C5          -0.0116    -0.0145     0.0026 C.ar         1    LIG   0.0000
   6 C6          -0.0175     1.3767     0.0098 C.ar         1    LIG   0.0000
   7 N7          -1.2379     2.0611     0.0249 N.pl3        1    LIG   0.0000
   8 C8          -1.8697     2.4148    -1.2531 C.3          1    LIG   0.0000
   9 C9          -2.6224     3.7166    -1.0303 C.3          1    LIG   0.0000
  10 N10         -3.6259     3.5455     0.0315 N.pl3        1    LIG   0.0000
  11 C11         -4.7851     4.3320     0.0668 C.ar         1    LIG   0.0000
  12 C12         -6.0109     3.6802    -0.0045 C.ar         1    LIG   0.0000
  13 C13         -7.1706     4.4470     0.0292 C.ar         1    LIG   0.0000
  14 C14         -8.4402     3.7518    -0.0460 C.2          1    LIG   0.0000
  15 N15         -9.6246     4.3082    -0.0249 N.2          1    LIG   0.0000
  16 N16        -10.5172     3.3463    -0.1123 N.2          1    LIG   0.0000
  17 N17         -9.9120     2.2374    -0.1828 N.2          1    LIG   0.0000
  18 N18         -8.6140     2.4084    -0.1478 N.pl3        1    LIG  -1.0000
  19 N19         -7.1063     5.7844     0.1285 N.ar         1    LIG   1.0000
  20 C20         -5.9340     6.4345     0.1984 C.ar         1    LIG   0.0000
  21 C21         -5.8928     7.8216     0.3011 C.ar         1    LIG   0.0000
  22 C22         -4.6821     8.5031     0.3737 C.ar         1    LIG   0.0000
  23 C23         -3.4844     7.7980     0.3448 C.ar         1    LIG   0.0000
  24 C24         -3.5319     6.4121     0.2426 C.ar         1    LIG   0.0000
  25 C25         -4.7385     5.7204     0.1689 C.ar         1    LIG   0.0000
  26 C26         -3.3884     2.5512     1.0865 C.3          1    LIG   0.0000
  27 C27         -1.8836     2.4594     1.2850 C.3          1    LIG   0.0000
  28 C28          1.1700     2.1005     0.0019 C.ar         1    LIG   0.0000
  29 H           -7.9559     6.3112     0.1510 H            1    LIG   0.0000
  30 H            4.4521     1.5494    -0.0325 H            1    LIG   0.0000
  31 H            3.7203     2.7684    -0.8357 H            1    LIG   0.0000
  32 H            3.7360     2.7600     0.7972 H            1    LIG   0.0000
  33 H            3.2798    -0.4681    -0.0318 H            1    LIG   0.0000
  34 H            1.2213    -1.6840    -0.0167 H            1    LIG   0.0000
  35 H           -0.8712    -0.5255     0.0078 H            1    LIG   0.0000
  36 H           -2.5043     1.6947    -1.5335 H            1    LIG   0.0000
  37 H           -1.1720     2.5378    -1.9589 H            1    LIG   0.0000
  38 H           -1.9758     4.4308    -0.7622 H            1    LIG   0.0000
  39 H           -3.0805     3.9830    -1.8784 H            1    LIG   0.0000
  40 H           -6.0577     2.6840    -0.0782 H            1    LIG   0.0000
  41 H           -6.7489     8.3379     0.3232 H            1    LIG   0.0000
  42 H           -4.6734     9.5004     0.4467 H            1    LIG   0.0000
  43 H           -2.6080     8.2769     0.3963 H            1    LIG   0.0000
  44 H           -2.6749     5.8971     0.2216 H            1    LIG   0.0000
  45 H           -3.7524     1.6624     0.8082 H            1    LIG   0.0000
  46 H           -3.8293     2.8408     1.9361 H            1    LIG   0.0000
  47 H           -1.5315     3.3506     1.5712 H            1    LIG   0.0000
  48 H           -1.6827     1.7796     1.9903 H            1    LIG   0.0000
  49 H            1.1560     3.1004     0.0070 H            1    LIG   0.0000
@<TRIPOS>BOND
   1        1        2 1
   2        2        3 ar
   3        3        4 ar
   4        4        5 ar
   5        5        6 ar
   6        6        7 1
   7        7        8 1
   8        8        9 1
   9        9       10 1
  10       10       11 1
  11       11       12 ar
  12       12       13 ar
  13       13       14 1
  14       14       15 2
  15       15       16 1
  16       16       17 2
  17       17       18 1
  18       18       14 1
  19       13       19 ar
  20       19       20 ar
  21       20       21 ar
  22       21       22 ar
  23       22       23 ar
  24       23       24 ar
  25       24       25 ar
  26       25       11 ar
  27       25       20 ar
  28       10       26 1
  29       26       27 1
  30       27        7 1
  31        6       28 ar
  32       28        2 ar
  33       19       29 1
  34        1       30 1
  35        1       31 1
  36        1       32 1
  37        3       33 1
  38        4       34 1
  39        5       35 1
  40        8       36 1
  41        8       37 1
  42        9       38 1
  43        9       39 1
  44       12       40 1
  45       21       41 1
  46       22       42 1
  47       23       43 1
  48       24       44 1
  49       26       45 1
  50       26       46 1
  51       27       47 1
  52       27       48 1
  53       28       49 1

