@<TRIPOS>MOLECULE
*****
 49 53 0 0 0
SMALL
USER_CHARGES

@<TRIPOS>ATOM
      1 C1          3.6831    2.1886   -0.0218 C.3     1  LIG1        0.0000
      2 C2          2.3775    1.4103   -0.0133 C.ar    1  LIG1        0.0000
      3 C3          2.4069    0.0197   -0.0206 C.ar    1  LIG1        0.0000
      4 C4          1.2073   -0.6841   -0.0121 C.ar    1  LIG1        0.0000
      5 C5         -0.0116   -0.0145    0.0026 C.ar    1  LIG1        0.0000
      6 C6         -0.0175    1.3767    0.0098 C.ar    1  LIG1        0.0000
      7 N7         -1.2379    2.0611    0.0249 N.pl3   1  LIG1        0.0000
      8 C8         -1.8449    2.4023    1.3182 C.3     1  LIG1        0.0000
      9 C9         -3.3522    2.3680    1.1233 C.3     1  LIG1        0.0000
     10 N10        -3.7492    3.3247    0.0788 N.pl3   1  LIG1        0.0000
     11 C11        -5.0251    3.9039    0.0736 C.ar    1  LIG1        0.0000
     12 C12        -5.3959    4.6609    1.1792 C.ar    1  LIG1        0.0000
     13 C13        -6.6592    5.2422    1.1891 C.ar    1  LIG1        0.0000
     14 C14        -7.0299    6.0281    2.3491 C.2     1  LIG1        0.0000
     15 N15        -8.1695    6.6466    2.5274 N.2     1  LIG1        0.0000
     16 N16        -8.1179    7.2453    3.6973 N.2     1  LIG1        0.0000
     17 N17        -6.9916    7.0101    4.2234 N.2     1  LIG1        0.0000
     18 N18        -6.2574    6.2571    3.4428 N.pl3   1  LIG1       -1.0000
     19 N19        -7.4992    5.0758    0.1550 N.ar    1  LIG1        1.0000
     20 C20        -7.1624    4.3491   -0.9222 C.ar    1  LIG1        0.0000
     21 C21        -8.0502    4.1912   -1.9819 C.ar    1  LIG1        0.0000
     22 C22        -7.7091    3.4395   -3.1018 C.ar    1  LIG1        0.0000
     23 C23        -6.4618    2.8303   -3.1767 C.ar    1  LIG1        0.0000
     24 C24        -5.5786    2.9922   -2.1150 C.ar    1  LIG1        0.0000
     25 C25        -5.9105    3.7421   -0.9893 C.ar    1  LIG1        0.0000
     26 C26        -2.7969    3.6517   -0.9909 C.3     1  LIG1        0.0000
     27 C27        -1.9379    2.4177   -1.2186 C.3     1  LIG1        0.0000
     28 C28         1.1700    2.1005    0.0019 C.ar    1  LIG1        0.0000
     29 H          -8.4016    5.5055    0.1883 H       1  LIG1        0.0000
     30 H           4.4521    1.5494   -0.0325 H       1  LIG1        0.0000
     31 H           3.7203    2.7684   -0.8357 H       1  LIG1        0.0000
     32 H           3.7360    2.7600    0.7972 H       1  LIG1        0.0000
     33 H           3.2798   -0.4681   -0.0318 H       1  LIG1        0.0000
     34 H           1.2213   -1.6840   -0.0167 H       1  LIG1        0.0000
     35 H          -0.8712   -0.5255    0.0078 H       1  LIG1        0.0000
     36 H          -1.5560    3.3163    1.6029 H       1  LIG1        0.0000
     37 H          -1.5729    1.7355    2.0120 H       1  LIG1        0.0000
     38 H          -3.6295    1.4468    0.8507 H       1  LIG1        0.0000
     39 H          -3.8023    2.6110    1.9826 H       1  LIG1        0.0000
     40 H          -4.7693    4.7843    1.9488 H       1  LIG1        0.0000
     41 H          -8.9497    4.6259   -1.9377 H       1  LIG1        0.0000
     42 H          -8.3613    3.3374   -3.8529 H       1  LIG1        0.0000
     43 H          -6.2054    2.2875   -3.9765 H       1  LIG1        0.0000
     44 H          -4.6792    2.5576   -2.1610 H       1  LIG1        0.0000
     45 H          -2.2230    4.4228   -0.7152 H       1  LIG1        0.0000
     46 H          -3.2897    3.8858   -1.8289 H       1  LIG1        0.0000
     47 H          -2.5202    1.6556   -1.5019 H       1  LIG1        0.0000
     48 H          -1.2664    2.6082   -1.9347 H       1  LIG1        0.0000
     49 H           1.1560    3.1004    0.0070 H       1  LIG1        0.0000
@<TRIPOS>BOND
     1     1     2    1
     2     2     3   ar
     3     3     4   ar
     4     4     5   ar
     5     5     6   ar
     6     6     7    1
     7     7     8    1
     8     8     9    1
     9     9    10    1
    10    10    11    1
    11    11    12   ar
    12    12    13   ar
    13    13    14    1
    14    14    15    2
    15    15    16    1
    16    16    17    2
    17    17    18    1
    18    18    14    1
    19    13    19   ar
    20    19    20   ar
    21    20    21   ar
    22    21    22   ar
    23    22    23   ar
    24    23    24   ar
    25    24    25   ar
    26    25    11   ar
    27    25    20   ar
    28    10    26    1
    29    26    27    1
    30    27     7    1
    31     6    28   ar
    32    28     2   ar
    33    19    29    1
    34     1    30    1
    35     1    31    1
    36     1    32    1
    37     3    33    1
    38     4    34    1
    39     5    35    1
    40     8    36    1
    41     8    37    1
    42     9    38    1
    43     9    39    1
    44    12    40    1
    45    21    41    1
    46    22    42    1
    47    23    43    1
    48    24    44    1
    49    26    45    1
    50    26    46    1
    51    27    47    1
    52    27    48    1
    53    28    49    1
