@<TRIPOS>MOLECULE
*****
 49 53 0 0 0
SMALL
USER_CHARGES

@<TRIPOS>ATOM
      1 C1          3.6831    2.1886   -0.0218 C.3     1  LIG1        0.0000
      2 C2          2.3775    1.4103   -0.0133 C.ar    1  LIG1        0.0000
      3 C3          2.4069    0.0197   -0.0206 C.ar    1  LIG1        0.0000
      4 C4          1.2073   -0.6841   -0.0121 C.ar    1  LIG1        0.0000
      5 C5         -0.0116   -0.0145    0.0026 C.ar    1  LIG1        0.0000
      6 C6         -0.0175    1.3767    0.0098 C.ar    1  LIG1        0.0000
      7 N7         -1.2388    2.0617    0.0249 N.pl3   1  LIG1        0.0000
      8 C8         -1.8892    2.4271    1.2920 C.3     1  LIG1        0.0000
      9 C9         -3.3919    2.5178    1.0828 C.3     1  LIG1        0.0000
     10 N10        -3.6203    3.5280    0.0412 N.pl3   1  LIG1        0.0000
     11 C11        -4.7900    4.2980    0.0918 C.ar    1  LIG1        0.0000
     12 C12        -6.0072    3.6293    0.0304 C.ar    1  LIG1        0.0000
     13 C13        -7.1771    4.3796    0.0794 C.ar    1  LIG1        0.0000
     14 C14        -8.4376    3.6670    0.0143 C.2     1  LIG1        0.0000
     15 N15        -8.5842    2.3706   -0.0905 N.2     1  LIG1        0.0000
     16 N16        -9.8744    2.1177   -0.1203 N.2     1  LIG1        0.0000
     17 N17       -10.5037    3.2123   -0.0394 N.2     1  LIG1        0.0000
     18 N18        -9.6762    4.2237    0.0480 N.pl3   1  LIG1       -1.0000
     19 N19        -7.1305    5.7173    0.1836 N.ar    1  LIG1        1.0000
     20 C20        -5.9668    6.3836    0.2442 C.ar    1  LIG1        0.0000
     21 C21        -5.9440    7.7707    0.3524 C.ar    1  LIG1        0.0000
     22 C22        -4.7423    8.4688    0.4154 C.ar    1  LIG1        0.0000
     23 C23        -3.5352    7.7807    0.3711 C.ar    1  LIG1        0.0000
     24 C24        -3.5643    6.3947    0.2636 C.ar    1  LIG1        0.0000
     25 C25        -4.7618    5.6865    0.1993 C.ar    1  LIG1        0.0000
     26 C26        -2.6150    3.7389   -1.0109 C.3     1  LIG1        0.0000
     27 C27        -1.8554    2.4451   -1.2524 C.3     1  LIG1        0.0000
     28 C28         1.1700    2.1005    0.0019 C.ar    1  LIG1        0.0000
     29 H          -7.9872    6.2321    0.2172 H       1  LIG1        0.0000
     30 H           4.4521    1.5494   -0.0325 H       1  LIG1        0.0000
     31 H           3.7203    2.7684   -0.8357 H       1  LIG1        0.0000
     32 H           3.7360    2.7600    0.7972 H       1  LIG1        0.0000
     33 H           3.2798   -0.4681   -0.0318 H       1  LIG1        0.0000
     34 H           1.2213   -1.6840   -0.0167 H       1  LIG1        0.0000
     35 H          -0.8712   -0.5255    0.0078 H       1  LIG1        0.0000
     36 H          -1.5418    3.3122    1.6018 H       1  LIG1        0.0000
     37 H          -1.6901    1.7310    1.9817 H       1  LIG1        0.0000
     38 H          -3.7516    1.6326    0.7875 H       1  LIG1        0.0000
     39 H          -3.8410    2.7932    1.9328 H       1  LIG1        0.0000
     40 H          -6.0408    2.6329   -0.0471 H       1  LIG1        0.0000
     41 H          -6.8070    8.2748    0.3855 H       1  LIG1        0.0000
     42 H          -4.7468    9.4659    0.4925 H       1  LIG1        0.0000
     43 H          -2.6651    8.2717    0.4156 H       1  LIG1        0.0000
     44 H          -2.7005    5.8919    0.2315 H       1  LIG1        0.0000
     45 H          -1.9758    4.4520   -0.7231 H       1  LIG1        0.0000
     46 H          -3.0705    4.0206   -1.8554 H       1  LIG1        0.0000
     47 H          -2.4842    1.7301   -1.5582 H       1  LIG1        0.0000
     48 H          -1.1488    2.5864   -1.9458 H       1  LIG1        0.0000
     49 H           1.1560    3.1004    0.0070 H       1  LIG1        0.0000
@<TRIPOS>BOND
     1     1     2    1
     2     2     3   ar
     3     3     4   ar
     4     4     5   ar
     5     5     6   ar
     6     6     7    1
     7     7     8    1
     8     8     9    1
     9     9    10    1
    10    10    11    1
    11    11    12   ar
    12    12    13   ar
    13    13    14    1
    14    14    15    2
    15    15    16    1
    16    16    17    2
    17    17    18    1
    18    18    14    1
    19    13    19   ar
    20    19    20   ar
    21    20    21   ar
    22    21    22   ar
    23    22    23   ar
    24    23    24   ar
    25    24    25   ar
    26    25    11   ar
    27    25    20   ar
    28    10    26    1
    29    26    27    1
    30    27     7    1
    31     6    28   ar
    32    28     2   ar
    33    19    29    1
    34     1    30    1
    35     1    31    1
    36     1    32    1
    37     3    33    1
    38     4    34    1
    39     5    35    1
    40     8    36    1
    41     8    37    1
    42     9    38    1
    43     9    39    1
    44    12    40    1
    45    21    41    1
    46    22    42    1
    47    23    43    1
    48    24    44    1
    49    26    45    1
    50    26    46    1
    51    27    47    1
    52    27    48    1
    53    28    49    1
