@<TRIPOS>MOLECULE
*****
 49 53 0 0 0
SMALL
USER_CHARGES

@<TRIPOS>ATOM
      1 C1          3.6831    2.1886   -0.0218 C.3     1  LIG1        0.0000
      2 C2          2.3775    1.4103   -0.0133 C.ar    1  LIG1        0.0000
      3 C3          2.4069    0.0197   -0.0206 C.ar    1  LIG1        0.0000
      4 C4          1.2073   -0.6841   -0.0121 C.ar    1  LIG1        0.0000
      5 C5         -0.0116   -0.0145    0.0026 C.ar    1  LIG1        0.0000
      6 C6         -0.0175    1.3767    0.0098 C.ar    1  LIG1        0.0000
      7 N7         -1.2388    2.0617    0.0249 N.pl3   1  LIG1        0.0000
      8 C8         -2.5172    1.3352    0.0337 C.3     1  LIG1        0.0000
      9 C9         -3.5936    2.1955   -0.6078 C.3     1  LIG1        0.0000
     10 N10        -3.6681    3.4400    0.1689 N.pl3   1  LIG1        0.0000
     11 C11        -4.9032    4.0920    0.2834 C.ar    1  LIG1        0.0000
     12 C12        -5.5203    4.5176   -0.8873 C.ar    1  LIG1        0.0000
     13 C13        -6.7466    5.1664   -0.7902 C.ar    1  LIG1        0.0000
     14 C14        -7.3765    5.6037   -2.0202 C.2     1  LIG1        0.0000
     15 N15        -6.8967    5.4484   -3.2280 N.2     1  LIG1        0.0000
     16 N16        -7.7580    5.9781   -4.0689 N.2     1  LIG1        0.0000
     17 N17        -8.7322    6.4451   -3.4104 N.2     1  LIG1        0.0000
     18 N18        -8.5669    6.2494   -2.1260 N.pl3   1  LIG1       -1.0000
     19 N19        -7.3194    5.3757    0.4058 N.ar    1  LIG1        1.0000
     20 C20        -6.7415    4.9737    1.5487 C.ar    1  LIG1        0.0000
     21 C21        -7.3548    5.2018    2.7767 C.ar    1  LIG1        0.0000
     22 C22        -6.7625    4.7886    3.9658 C.ar    1  LIG1        0.0000
     23 C23        -5.5362    4.1344    3.9412 C.ar    1  LIG1        0.0000
     24 C24        -4.9284    3.9087    2.7111 C.ar    1  LIG1        0.0000
     25 C25        -5.5126    4.3187    1.5152 C.ar    1  LIG1        0.0000
     26 C26        -2.4666    3.9629    0.8361 C.3     1  LIG1        0.0000
     27 C27        -1.2304    3.5304    0.0653 C.3     1  LIG1        0.0000
     28 C28         1.1700    2.1005    0.0019 C.ar    1  LIG1        0.0000
     29 H          -8.2017    5.8446    0.4465 H       1  LIG1        0.0000
     30 H           4.4521    1.5494   -0.0325 H       1  LIG1        0.0000
     31 H           3.7203    2.7684   -0.8357 H       1  LIG1        0.0000
     32 H           3.7360    2.7600    0.7972 H       1  LIG1        0.0000
     33 H           3.2798   -0.4681   -0.0318 H       1  LIG1        0.0000
     34 H           1.2213   -1.6840   -0.0167 H       1  LIG1        0.0000
     35 H          -0.8712   -0.5255    0.0078 H       1  LIG1        0.0000
     36 H          -2.7754    1.1265    0.9769 H       1  LIG1        0.0000
     37 H          -2.4201    0.4836   -0.4815 H       1  LIG1        0.0000
     38 H          -3.3518    2.3970   -1.5570 H       1  LIG1        0.0000
     39 H          -4.4735    1.7210   -0.5814 H       1  LIG1        0.0000
     40 H          -5.0929    4.3611   -1.7777 H       1  LIG1        0.0000
     41 H          -8.2374    5.6712    2.8050 H       1  LIG1        0.0000
     42 H          -7.2190    4.9623    4.8384 H       1  LIG1        0.0000
     43 H          -5.1007    3.8327    4.7893 H       1  LIG1        0.0000
     44 H          -4.0463    3.4384    2.6844 H       1  LIG1        0.0000
     45 H          -2.4204    3.6043    1.7685 H       1  LIG1        0.0000
     46 H          -2.5091    4.9615    0.8647 H       1  LIG1        0.0000
     47 H          -1.2589    3.8993   -0.8637 H       1  LIG1        0.0000
     48 H          -0.4061    3.8562    0.5282 H       1  LIG1        0.0000
     49 H           1.1560    3.1004    0.0070 H       1  LIG1        0.0000
@<TRIPOS>BOND
     1     1     2    1
     2     2     3   ar
     3     3     4   ar
     4     4     5   ar
     5     5     6   ar
     6     6     7    1
     7     7     8    1
     8     8     9    1
     9     9    10    1
    10    10    11    1
    11    11    12   ar
    12    12    13   ar
    13    13    14    1
    14    14    15    2
    15    15    16    1
    16    16    17    2
    17    17    18    1
    18    18    14    1
    19    13    19   ar
    20    19    20   ar
    21    20    21   ar
    22    21    22   ar
    23    22    23   ar
    24    23    24   ar
    25    24    25   ar
    26    25    11   ar
    27    25    20   ar
    28    10    26    1
    29    26    27    1
    30    27     7    1
    31     6    28   ar
    32    28     2   ar
    33    19    29    1
    34     1    30    1
    35     1    31    1
    36     1    32    1
    37     3    33    1
    38     4    34    1
    39     5    35    1
    40     8    36    1
    41     8    37    1
    42     9    38    1
    43     9    39    1
    44    12    40    1
    45    21    41    1
    46    22    42    1
    47    23    43    1
    48    24    44    1
    49    26    45    1
    50    26    46    1
    51    27    47    1
    52    27    48    1
    53    28    49    1
