@<TRIPOS>MOLECULE
*****
 49 53 0 0 0
SMALL
USER_CHARGES

@<TRIPOS>ATOM
      1 C1          3.6831    2.1886   -0.0218 C.3     1  LIG1        0.0000
      2 C2          2.3775    1.4103   -0.0133 C.ar    1  LIG1        0.0000
      3 C3          2.4069    0.0197   -0.0206 C.ar    1  LIG1        0.0000
      4 C4          1.2073   -0.6841   -0.0121 C.ar    1  LIG1        0.0000
      5 C5         -0.0116   -0.0145    0.0026 C.ar    1  LIG1        0.0000
      6 C6         -0.0175    1.3767    0.0098 C.ar    1  LIG1        0.0000
      7 N7         -1.2388    2.0617    0.0249 N.pl3   1  LIG1        0.0000
      8 C8         -1.2854    3.5313    0.0325 C.3     1  LIG1        0.0000
      9 C9         -2.5685    3.9944    0.7031 C.3     1  LIG1        0.0000
     10 N10        -3.6837    3.4172   -0.0589 N.pl3   1  LIG1        0.0000
     11 C11        -4.8859    4.1322   -0.1432 C.ar    1  LIG1        0.0000
     12 C12        -5.3322    4.4996   -1.4076 C.ar    1  LIG1        0.0000
     13 C13        -6.5236    5.2097   -1.5078 C.ar    1  LIG1        0.0000
     14 C14        -6.9747    5.5849   -2.8331 C.2     1  LIG1        0.0000
     15 N15        -8.0672    6.2481   -3.1152 N.2     1  LIG1        0.0000
     16 N16        -8.1213    6.3877   -4.4218 N.2     1  LIG1        0.0000
     17 N17        -7.1049    5.8323   -4.9309 N.2     1  LIG1        0.0000
     18 N18        -6.3422    5.3093   -4.0033 N.pl3   1  LIG1       -1.0000
     19 N19        -7.2250    5.5318   -0.4092 N.ar    1  LIG1        1.0000
     20 C20        -6.8130    5.1877    0.8211 C.ar    1  LIG1        0.0000
     21 C21        -7.5574    5.5328    1.9450 C.ar    1  LIG1        0.0000
     22 C22        -7.1373    5.1803    3.2236 C.ar    1  LIG1        0.0000
     23 C23        -5.9548    4.4700    3.3959 C.ar    1  LIG1        0.0000
     24 C24        -5.2155    4.1275    2.2691 C.ar    1  LIG1        0.0000
     25 C25        -5.6270    4.4759    0.9849 C.ar    1  LIG1        0.0000
     26 C26        -3.5161    2.1264   -0.7430 C.3     1  LIG1        0.0000
     27 C27        -2.4883    1.2891   -0.0002 C.3     1  LIG1        0.0000
     28 C28         1.1700    2.1005    0.0019 C.ar    1  LIG1        0.0000
     29 H          -8.0787    6.0426   -0.5103 H       1  LIG1        0.0000
     30 H           4.4521    1.5494   -0.0325 H       1  LIG1        0.0000
     31 H           3.7203    2.7684   -0.8357 H       1  LIG1        0.0000
     32 H           3.7360    2.7600    0.7972 H       1  LIG1        0.0000
     33 H           3.2798   -0.4681   -0.0318 H       1  LIG1        0.0000
     34 H           1.2213   -1.6840   -0.0167 H       1  LIG1        0.0000
     35 H          -0.8712   -0.5255    0.0078 H       1  LIG1        0.0000
     36 H          -1.2597    3.8704   -0.9079 H       1  LIG1        0.0000
     37 H          -0.4986    3.8871    0.5368 H       1  LIG1        0.0000
     38 H          -2.5965    3.6730    1.6497 H       1  LIG1        0.0000
     39 H          -2.6227    4.9928    0.6883 H       1  LIG1        0.0000
     40 H          -4.8091    4.2590   -2.2252 H       1  LIG1        0.0000
     41 H          -8.4097    6.0433    1.8315 H       1  LIG1        0.0000
     42 H          -7.6861    5.4380    4.0189 H       1  LIG1        0.0000
     43 H          -5.6427    4.2111    4.3100 H       1  LIG1        0.0000
     44 H          -4.3638    3.6162    2.3841 H       1  LIG1        0.0000
     45 H          -3.2037    2.2838   -1.6798 H       1  LIG1        0.0000
     46 H          -4.3909    1.6422   -0.7603 H       1  LIG1        0.0000
     47 H          -2.8005    1.1112    0.9331 H       1  LIG1        0.0000
     48 H          -2.3453    0.4207   -0.4750 H       1  LIG1        0.0000
     49 H           1.1560    3.1004    0.0070 H       1  LIG1        0.0000
@<TRIPOS>BOND
     1     1     2    1
     2     2     3   ar
     3     3     4   ar
     4     4     5   ar
     5     5     6   ar
     6     6     7    1
     7     7     8    1
     8     8     9    1
     9     9    10    1
    10    10    11    1
    11    11    12   ar
    12    12    13   ar
    13    13    14    1
    14    14    15    2
    15    15    16    1
    16    16    17    2
    17    17    18    1
    18    18    14    1
    19    13    19   ar
    20    19    20   ar
    21    20    21   ar
    22    21    22   ar
    23    22    23   ar
    24    23    24   ar
    25    24    25   ar
    26    25    11   ar
    27    25    20   ar
    28    10    26    1
    29    26    27    1
    30    27     7    1
    31     6    28   ar
    32    28     2   ar
    33    19    29    1
    34     1    30    1
    35     1    31    1
    36     1    32    1
    37     3    33    1
    38     4    34    1
    39     5    35    1
    40     8    36    1
    41     8    37    1
    42     9    38    1
    43     9    39    1
    44    12    40    1
    45    21    41    1
    46    22    42    1
    47    23    43    1
    48    24    44    1
    49    26    45    1
    50    26    46    1
    51    27    47    1
    52    27    48    1
    53    28    49    1
