@<TRIPOS>MOLECULE
*****
 49 53 0 0 0
SMALL
USER_CHARGES

@<TRIPOS>ATOM
      1 C1          3.6831    2.1886   -0.0218 C.3     1  LIG1        0.0000
      2 C2          2.3775    1.4103   -0.0133 C.ar    1  LIG1        0.0000
      3 C3          2.4069    0.0197   -0.0206 C.ar    1  LIG1        0.0000
      4 C4          1.2073   -0.6841   -0.0121 C.ar    1  LIG1        0.0000
      5 C5         -0.0116   -0.0145    0.0026 C.ar    1  LIG1        0.0000
      6 C6         -0.0175    1.3767    0.0098 C.ar    1  LIG1        0.0000
      7 N7         -1.2379    2.0611    0.0249 N.pl3   1  LIG1        0.0000
      8 C8         -2.4862    1.2872    0.0331 C.3     1  LIG1        0.0000
      9 C9         -3.5213    2.1071   -0.7200 C.3     1  LIG1        0.0000
     10 N10        -3.7003    3.4151   -0.0713 N.pl3   1  LIG1        0.0000
     11 C11        -4.9090    4.1163   -0.1752 C.ar    1  LIG1        0.0000
     12 C12        -4.8763    5.3783   -0.7574 C.ar    1  LIG1        0.0000
     13 C13        -6.0679    6.0869   -0.8675 C.ar    1  LIG1        0.0000
     14 C14        -6.0162    7.4009   -1.4770 C.2     1  LIG1        0.0000
     15 N15        -7.0335    8.2028   -1.6645 N.2     1  LIG1        0.0000
     16 N16        -6.5790    9.2925   -2.2437 N.2     1  LIG1        0.0000
     17 N17        -5.3308    9.1719   -2.4111 N.2     1  LIG1        0.0000
     18 N18        -4.9060    8.0188   -1.9577 N.pl3   1  LIG1       -1.0000
     19 N19        -7.2212    5.5634   -0.4222 N.ar    1  LIG1        1.0000
     20 C20        -7.2761    4.3473    0.1433 C.ar    1  LIG1        0.0000
     21 C21        -8.4837    3.8257    0.5972 C.ar    1  LIG1        0.0000
     22 C22        -8.5492    2.5664    1.1848 C.ar    1  LIG1        0.0000
     23 C23        -7.3952    1.8043    1.3266 C.ar    1  LIG1        0.0000
     24 C24        -6.1916    2.3304    0.8706 C.ar    1  LIG1        0.0000
     25 C25        -6.1152    3.5902    0.2816 C.ar    1  LIG1        0.0000
     26 C26        -2.5786    4.0042    0.6724 C.3     1  LIG1        0.0000
     27 C27        -1.2987    3.5306    0.0017 C.3     1  LIG1        0.0000
     28 C28         1.1700    2.1005    0.0019 C.ar    1  LIG1        0.0000
     29 H          -8.0634    6.0947   -0.5144 H       1  LIG1        0.0000
     30 H           4.4521    1.5494   -0.0325 H       1  LIG1        0.0000
     31 H           3.7203    2.7684   -0.8357 H       1  LIG1        0.0000
     32 H           3.7360    2.7600    0.7972 H       1  LIG1        0.0000
     33 H           3.2798   -0.4681   -0.0318 H       1  LIG1        0.0000
     34 H           1.2213   -1.6840   -0.0167 H       1  LIG1        0.0000
     35 H          -0.8712   -0.5255    0.0078 H       1  LIG1        0.0000
     36 H          -2.7885    1.1327    0.9738 H       1  LIG1        0.0000
     37 H          -2.3480    0.4073   -0.4213 H       1  LIG1        0.0000
     38 H          -3.2132    2.2444   -1.6615 H       1  LIG1        0.0000
     39 H          -4.3931    1.6173   -0.7227 H       1  LIG1        0.0000
     40 H          -4.0167    5.7672   -1.0889 H       1  LIG1        0.0000
     41 H          -9.3195    4.3660    0.4993 H       1  LIG1        0.0000
     42 H          -9.4266    2.2092    1.5051 H       1  LIG1        0.0000
     43 H          -7.4299    0.8978    1.7473 H       1  LIG1        0.0000
     44 H          -5.3568    1.7887    0.9684 H       1  LIG1        0.0000
     45 H          -2.6002    3.6987    1.6243 H       1  LIG1        0.0000
     46 H          -2.6330    5.0022    0.6412 H       1  LIG1        0.0000
     47 H          -1.2834    3.8485   -0.9463 H       1  LIG1        0.0000
     48 H          -0.5101    3.9032    0.4910 H       1  LIG1        0.0000
     49 H           1.1560    3.1004    0.0070 H       1  LIG1        0.0000
@<TRIPOS>BOND
     1     1     2    1
     2     2     3   ar
     3     3     4   ar
     4     4     5   ar
     5     5     6   ar
     6     6     7    1
     7     7     8    1
     8     8     9    1
     9     9    10    1
    10    10    11    1
    11    11    12   ar
    12    12    13   ar
    13    13    14    1
    14    14    15    2
    15    15    16    1
    16    16    17    2
    17    17    18    1
    18    18    14    1
    19    13    19   ar
    20    19    20   ar
    21    20    21   ar
    22    21    22   ar
    23    22    23   ar
    24    23    24   ar
    25    24    25   ar
    26    25    11   ar
    27    25    20   ar
    28    10    26    1
    29    26    27    1
    30    27     7    1
    31     6    28   ar
    32    28     2   ar
    33    19    29    1
    34     1    30    1
    35     1    31    1
    36     1    32    1
    37     3    33    1
    38     4    34    1
    39     5    35    1
    40     8    36    1
    41     8    37    1
    42     9    38    1
    43     9    39    1
    44    12    40    1
    45    21    41    1
    46    22    42    1
    47    23    43    1
    48    24    44    1
    49    26    45    1
    50    26    46    1
    51    27    47    1
    52    27    48    1
    53    28    49    1
