@<TRIPOS>MOLECULE
*****
 49 53 0 0 0
SMALL
USER_CHARGES

@<TRIPOS>ATOM
      1 C1          3.6831    2.1886   -0.0218 C.3     1  LIG1        0.0000
      2 C2          2.3775    1.4103   -0.0133 C.ar    1  LIG1        0.0000
      3 C3          2.4069    0.0197   -0.0206 C.ar    1  LIG1        0.0000
      4 C4          1.2073   -0.6841   -0.0121 C.ar    1  LIG1        0.0000
      5 C5         -0.0116   -0.0145    0.0026 C.ar    1  LIG1        0.0000
      6 C6         -0.0175    1.3767    0.0098 C.ar    1  LIG1        0.0000
      7 N7         -1.2379    2.0611    0.0249 N.pl3   1  LIG1        0.0000
      8 C8         -1.8697    2.4148   -1.2531 C.3     1  LIG1        0.0000
      9 C9         -2.6224    3.7166   -1.0303 C.3     1  LIG1        0.0000
     10 N10        -3.6259    3.5455    0.0315 N.pl3   1  LIG1        0.0000
     11 C11        -4.7851    4.3320    0.0668 C.ar    1  LIG1        0.0000
     12 C12        -6.0109    3.6802   -0.0045 C.ar    1  LIG1        0.0000
     13 C13        -7.1706    4.4470    0.0292 C.ar    1  LIG1        0.0000
     14 C14        -8.4402    3.7518   -0.0460 C.2     1  LIG1        0.0000
     15 N15        -9.6246    4.3082   -0.0249 N.2     1  LIG1        0.0000
     16 N16       -10.5172    3.3463   -0.1123 N.2     1  LIG1        0.0000
     17 N17        -9.9120    2.2374   -0.1828 N.2     1  LIG1        0.0000
     18 N18        -8.6140    2.4084   -0.1478 N.pl3   1  LIG1       -1.0000
     19 N19        -7.1063    5.7844    0.1285 N.ar    1  LIG1        1.0000
     20 C20        -5.9340    6.4345    0.1984 C.ar    1  LIG1        0.0000
     21 C21        -5.8928    7.8216    0.3011 C.ar    1  LIG1        0.0000
     22 C22        -4.6821    8.5031    0.3737 C.ar    1  LIG1        0.0000
     23 C23        -3.4844    7.7980    0.3448 C.ar    1  LIG1        0.0000
     24 C24        -3.5319    6.4121    0.2426 C.ar    1  LIG1        0.0000
     25 C25        -4.7385    5.7204    0.1689 C.ar    1  LIG1        0.0000
     26 C26        -3.3884    2.5512    1.0865 C.3     1  LIG1        0.0000
     27 C27        -1.8836    2.4594    1.2850 C.3     1  LIG1        0.0000
     28 C28         1.1700    2.1005    0.0019 C.ar    1  LIG1        0.0000
     29 H          -7.9559    6.3112    0.1510 H       1  LIG1        0.0000
     30 H           4.4521    1.5494   -0.0325 H       1  LIG1        0.0000
     31 H           3.7203    2.7684   -0.8357 H       1  LIG1        0.0000
     32 H           3.7360    2.7600    0.7972 H       1  LIG1        0.0000
     33 H           3.2798   -0.4681   -0.0318 H       1  LIG1        0.0000
     34 H           1.2213   -1.6840   -0.0167 H       1  LIG1        0.0000
     35 H          -0.8712   -0.5255    0.0078 H       1  LIG1        0.0000
     36 H          -2.5043    1.6947   -1.5335 H       1  LIG1        0.0000
     37 H          -1.1720    2.5378   -1.9589 H       1  LIG1        0.0000
     38 H          -1.9758    4.4308   -0.7622 H       1  LIG1        0.0000
     39 H          -3.0805    3.9830   -1.8784 H       1  LIG1        0.0000
     40 H          -6.0577    2.6840   -0.0782 H       1  LIG1        0.0000
     41 H          -6.7489    8.3379    0.3232 H       1  LIG1        0.0000
     42 H          -4.6734    9.5004    0.4467 H       1  LIG1        0.0000
     43 H          -2.6080    8.2769    0.3963 H       1  LIG1        0.0000
     44 H          -2.6749    5.8971    0.2216 H       1  LIG1        0.0000
     45 H          -3.7524    1.6624    0.8082 H       1  LIG1        0.0000
     46 H          -3.8293    2.8408    1.9361 H       1  LIG1        0.0000
     47 H          -1.5315    3.3506    1.5712 H       1  LIG1        0.0000
     48 H          -1.6827    1.7796    1.9903 H       1  LIG1        0.0000
     49 H           1.1560    3.1004    0.0070 H       1  LIG1        0.0000
@<TRIPOS>BOND
     1     1     2    1
     2     2     3   ar
     3     3     4   ar
     4     4     5   ar
     5     5     6   ar
     6     6     7    1
     7     7     8    1
     8     8     9    1
     9     9    10    1
    10    10    11    1
    11    11    12   ar
    12    12    13   ar
    13    13    14    1
    14    14    15    2
    15    15    16    1
    16    16    17    2
    17    17    18    1
    18    18    14    1
    19    13    19   ar
    20    19    20   ar
    21    20    21   ar
    22    21    22   ar
    23    22    23   ar
    24    23    24   ar
    25    24    25   ar
    26    25    11   ar
    27    25    20   ar
    28    10    26    1
    29    26    27    1
    30    27     7    1
    31     6    28   ar
    32    28     2   ar
    33    19    29    1
    34     1    30    1
    35     1    31    1
    36     1    32    1
    37     3    33    1
    38     4    34    1
    39     5    35    1
    40     8    36    1
    41     8    37    1
    42     9    38    1
    43     9    39    1
    44    12    40    1
    45    21    41    1
    46    22    42    1
    47    23    43    1
    48    24    44    1
    49    26    45    1
    50    26    46    1
    51    27    47    1
    52    27    48    1
    53    28    49    1
