@<TRIPOS>MOLECULE
*****
 49 53 0 0 0
SMALL
USER_CHARGES

@<TRIPOS>ATOM
      1 C1          3.6831    2.1886   -0.0218 C.3     1  LIG1        0.0000
      2 C2          2.3775    1.4103   -0.0133 C.ar    1  LIG1        0.0000
      3 C3          2.4069    0.0197   -0.0206 C.ar    1  LIG1        0.0000
      4 C4          1.2073   -0.6841   -0.0121 C.ar    1  LIG1        0.0000
      5 C5         -0.0116   -0.0145    0.0026 C.ar    1  LIG1        0.0000
      6 C6         -0.0175    1.3767    0.0098 C.ar    1  LIG1        0.0000
      7 N7         -1.2388    2.0617    0.0249 N.pl3   1  LIG1        0.0000
      8 C8         -1.9134    2.4394   -1.2258 C.3     1  LIG1        0.0000
      9 C9         -2.7701    3.6721   -0.9875 C.3     1  LIG1        0.0000
     10 N10        -3.7315    3.3291    0.0688 N.pl3   1  LIG1        0.0000
     11 C11        -4.9991    3.9261    0.0483 C.ar    1  LIG1        0.0000
     12 C12        -5.3689    4.6958    1.1454 C.ar    1  LIG1        0.0000
     13 C13        -6.6239    5.2948    1.1401 C.ar    1  LIG1        0.0000
     14 C14        -6.9937    6.0939    2.2914 C.2     1  LIG1        0.0000
     15 N15        -6.2541    6.3070    3.3499 N.2     1  LIG1        0.0000
     16 N16        -6.9405    7.0767    4.1660 N.2     1  LIG1        0.0000
     17 N17        -8.0615    7.3300    3.6370 N.2     1  LIG1        0.0000
     18 N18        -8.1690    6.7524    2.4664 N.pl3   1  LIG1       -1.0000
     19 N19        -7.4571    5.1330    0.0998 N.ar    1  LIG1        1.0000
     20 C20        -7.1211    4.3942   -0.9694 C.ar    1  LIG1        0.0000
     21 C21        -8.0018    4.2413   -2.0358 C.ar    1  LIG1        0.0000
     22 C22        -7.6614    3.4771   -3.1474 C.ar    1  LIG1        0.0000
     23 C23        -6.4222    2.8500   -3.2072 C.ar    1  LIG1        0.0000
     24 C24        -5.5462    3.0069   -2.1388 C.ar    1  LIG1        0.0000
     25 C25        -5.8774    3.7693   -1.0213 C.ar    1  LIG1        0.0000
     26 C26        -3.3677    2.3504    1.1041 C.3     1  LIG1        0.0000
     27 C27        -1.8633    2.3744    1.3176 C.3     1  LIG1        0.0000
     28 C28         1.1700    2.1005    0.0019 C.ar    1  LIG1        0.0000
     29 H          -8.3536    5.5754    0.1221 H       1  LIG1        0.0000
     30 H           4.4521    1.5494   -0.0325 H       1  LIG1        0.0000
     31 H           3.7203    2.7684   -0.8357 H       1  LIG1        0.0000
     32 H           3.7360    2.7600    0.7972 H       1  LIG1        0.0000
     33 H           3.2798   -0.4681   -0.0318 H       1  LIG1        0.0000
     34 H           1.2213   -1.6840   -0.0167 H       1  LIG1        0.0000
     35 H          -0.8712   -0.5255    0.0078 H       1  LIG1        0.0000
     36 H          -2.4934    1.6847   -1.5327 H       1  LIG1        0.0000
     37 H          -1.2286    2.6398   -1.9265 H       1  LIG1        0.0000
     38 H          -2.1968    4.4374   -0.6948 H       1  LIG1        0.0000
     39 H          -3.2552    3.9206   -1.8259 H       1  LIG1        0.0000
     40 H          -4.7474    4.8159    1.9196 H       1  LIG1        0.0000
     41 H          -8.8954    4.6888   -2.0025 H       1  LIG1        0.0000
     42 H          -8.3084    3.3789   -3.9036 H       1  LIG1        0.0000
     43 H          -6.1664    2.2982   -4.0010 H       1  LIG1        0.0000
     44 H          -4.6525    2.5595   -2.1739 H       1  LIG1        0.0000
     45 H          -3.6483    1.4361    0.8118 H       1  LIG1        0.0000
     46 H          -3.8296    2.5831    1.9599 H       1  LIG1        0.0000
     47 H          -1.5752    3.2805    1.6275 H       1  LIG1        0.0000
     48 H          -1.6025    1.6905    1.9990 H       1  LIG1        0.0000
     49 H           1.1560    3.1004    0.0070 H       1  LIG1        0.0000
@<TRIPOS>BOND
     1     1     2    1
     2     2     3   ar
     3     3     4   ar
     4     4     5   ar
     5     5     6   ar
     6     6     7    1
     7     7     8    1
     8     8     9    1
     9     9    10    1
    10    10    11    1
    11    11    12   ar
    12    12    13   ar
    13    13    14    1
    14    14    15    2
    15    15    16    1
    16    16    17    2
    17    17    18    1
    18    18    14    1
    19    13    19   ar
    20    19    20   ar
    21    20    21   ar
    22    21    22   ar
    23    22    23   ar
    24    23    24   ar
    25    24    25   ar
    26    25    11   ar
    27    25    20   ar
    28    10    26    1
    29    26    27    1
    30    27     7    1
    31     6    28   ar
    32    28     2   ar
    33    19    29    1
    34     1    30    1
    35     1    31    1
    36     1    32    1
    37     3    33    1
    38     4    34    1
    39     5    35    1
    40     8    36    1
    41     8    37    1
    42     9    38    1
    43     9    39    1
    44    12    40    1
    45    21    41    1
    46    22    42    1
    47    23    43    1
    48    24    44    1
    49    26    45    1
    50    26    46    1
    51    27    47    1
    52    27    48    1
    53    28    49    1
