@<TRIPOS>MOLECULE

  56   59
SMALL
USER_CHARGES
@<TRIPOS>ATOM
   1 C1          -2.0929    -7.8344    -2.1235 C.3          1    LIG   0.0000
   2 C2          -1.2980    -6.7078    -1.4833 C.ar         1    LIG   0.0000
   3 C3          -1.4801    -6.4518    -0.1287 C.ar         1    LIG   0.0000
   4 C4          -0.7737    -5.4309     0.4987 C.ar         1    LIG   0.0000
   5 C5           0.1178    -4.6700    -0.2502 C.ar         1    LIG   0.0000
   6 N6           0.8311    -3.6418     0.3770 N.pl3        1    LIG   0.0000
   7 C7           0.2821    -2.3849     0.4063 C.2          1    LIG   0.0000
   8 O8          -0.9222    -2.1603    -0.1628 O.3          1    LIG   0.0000
   9 C9           0.9375    -1.3413     1.0074 C.2          1    LIG   0.0000
  10 C10          0.3010    -0.0363     1.0033 C.2          1    LIG   0.0000
  11 N11          1.0000     1.0000     1.0000 N.2          1    LIG   0.0000
  12 C12          2.4004     1.0000     1.0000 C.ar         1    LIG   0.0000
  13 C13          3.0961    -0.1331     0.5910 C.ar         1    LIG   0.0000
  14 C14          4.4872    -0.1335     0.5917 C.ar         1    LIG   0.0000
  15 C15          5.1827     0.9997     1.0003 C.ar         1    LIG   0.0000
  16 C16          4.4871     2.1333     1.4092 C.ar         1    LIG   0.0000
  17 C17          3.0961     2.1336     1.4086 C.ar         1    LIG   0.0000
  18 C18          2.3360     3.3722     1.8548 C.3          1    LIG   0.0000
  19 S19          2.0342     3.2852     3.6374 S.o          1    LIG   0.0000
  20 C20          1.1291     4.7599     4.1687 C.3          1    LIG   0.0000
  21 O21          1.2289     2.0702     3.9461 O.2          1    LIG   0.0000
  22 C22          2.2074    -1.5731     1.6079 C.ar         1    LIG   0.0000
  23 C23          2.9156    -0.5481     2.2322 C.ar         1    LIG   0.0000
  24 C24          4.1568    -0.7539     2.8244 C.ar         1    LIG   0.0000
  25 C25          4.7141    -2.0279     2.7949 C.ar         1    LIG   0.0000
  26 C26          4.0126    -3.0563     2.1748 C.ar         1    LIG   0.0000
  27 C27          2.7687    -2.8486     1.5811 C.ar         1    LIG   0.0000
  28 C28          2.0524    -3.9021     0.9459 C.2          1    LIG   0.0000
  29 O29          2.4914    -5.0420     0.8893 O.2          1    LIG   0.0000
  30 C30          0.3089    -4.9156    -1.6063 C.ar         1    LIG   0.0000
  31 C31         -0.4032    -5.9393    -2.2226 C.ar         1    LIG   0.0000
  32 C32         -0.1800    -6.1920    -3.7052 C.3          1    LIG   0.0000
  33 H           -2.6761    -8.2644    -1.4342 H            1    LIG   0.0000
  34 H           -2.6620    -7.4652    -2.8582 H            1    LIG   0.0000
  35 H           -1.4637    -8.5148    -2.4991 H            1    LIG   0.0000
  36 H           -2.1240    -7.0061     0.3987 H            1    LIG   0.0000
  37 H           -0.9048    -5.2470     1.4728 H            1    LIG   0.0000
  38 H           -1.3222    -1.2441    -0.1414 H            1    LIG   0.0000
  39 H           -0.6966     0.0335     1.0030 H            1    LIG   0.0000
  40 H            2.5961    -0.9475     0.2965 H            1    LIG   0.0000
  41 H            4.9871    -0.9484     0.2984 H            1    LIG   0.0000
  42 H            6.1827     0.9997     1.0002 H            1    LIG   0.0000
  43 H            4.9871     2.9478     1.7035 H            1    LIG   0.0000
  44 H            2.8764     4.1876     1.6477 H            1    LIG   0.0000
  45 H            1.4623     3.4195     1.3707 H            1    LIG   0.0000
  46 H            1.6696     5.5754     3.9615 H            1    LIG   0.0000
  47 H            0.2554     4.8072     3.6846 H            1    LIG   0.0000
  48 H            0.9624     4.7119     5.1535 H            1    LIG   0.0000
  49 H            2.5168     0.3686     2.2552 H            1    LIG   0.0000
  50 H            4.6412     0.0022     3.2645 H            1    LIG   0.0000
  51 H            5.6056    -2.2018     3.2131 H            1    LIG   0.0000
  52 H            4.4128    -3.9725     2.1543 H            1    LIG   0.0000
  53 H            0.9528    -4.3610    -2.1333 H            1    LIG   0.0000
  54 H            0.4943    -5.5423    -4.0562 H            1    LIG   0.0000
  55 H            0.1555    -7.1247    -3.8375 H            1    LIG   0.0000
  56 H           -1.0429    -6.0752    -4.1969 H            1    LIG   0.0000
@<TRIPOS>BOND
   1        1        2 1
   2        2        3 ar
   3        3        4 ar
   4        4        5 ar
   5        5        6 1
   6        6        7 1
   7        7        8 1
   8        7        9 2
   9        9       10 1
  10       10       11 2
  11       11       12 1
  12       12       13 ar
  13       13       14 ar
  14       14       15 ar
  15       15       16 ar
  16       16       17 ar
  17       17       12 ar
  18       17       18 1
  19       18       19 1
  20       19       20 1
  21       19       21 2
  22        9       22 1
  23       22       23 ar
  24       23       24 ar
  25       24       25 ar
  26       25       26 ar
  27       26       27 ar
  28       27       22 ar
  29       27       28 1
  30       28        6 1
  31       28       29 2
  32        5       30 ar
  33       30       31 ar
  34       31        2 ar
  35       31       32 1
  36        1       33 1
  37        1       34 1
  38        1       35 1
  39        3       36 1
  40        4       37 1
  41        8       38 1
  42       10       39 1
  43       13       40 1
  44       14       41 1
  45       15       42 1
  46       16       43 1
  47       18       44 1
  48       18       45 1
  49       20       46 1
  50       20       47 1
  51       20       48 1
  52       23       49 1
  53       24       50 1
  54       25       51 1
  55       26       52 1
  56       30       53 1
  57       32       54 1
  58       32       55 1
  59       32       56 1

@<TRIPOS>MOLECULE

  56   59
SMALL
USER_CHARGES
@<TRIPOS>ATOM
   1 C1          -2.0443    -7.8085    -2.2213 C.3          1    LIG   0.0000
   2 C2          -1.2906    -6.7029    -1.4999 C.ar         1    LIG   0.0000
   3 C3          -0.3928    -5.9273    -2.2254 C.ar         1    LIG   0.0000
   4 C4           0.3185    -4.9047    -1.6063 C.ar         1    LIG   0.0000
   5 C5           0.1178    -4.6700    -0.2502 C.ar         1    LIG   0.0000
   6 N6           0.8311    -3.6418     0.3770 N.pl3        1    LIG   0.0000
   7 C7           0.2821    -2.3849     0.4063 C.2          1    LIG   0.0000
   8 O8          -0.9222    -2.1603    -0.1628 O.3          1    LIG   0.0000
   9 C9           0.9375    -1.3413     1.0074 C.2          1    LIG   0.0000
  10 C10          0.3010    -0.0363     1.0033 C.2          1    LIG   0.0000
  11 N11          1.0000     1.0000     1.0000 N.2          1    LIG   0.0000
  12 C12          2.4004     1.0000     1.0000 C.ar         1    LIG   0.0000
  13 C13          3.0961    -0.1331     0.5910 C.ar         1    LIG   0.0000
  14 C14          4.4872    -0.1335     0.5917 C.ar         1    LIG   0.0000
  15 C15          5.1827     0.9997     1.0003 C.ar         1    LIG   0.0000
  16 C16          4.4871     2.1333     1.4092 C.ar         1    LIG   0.0000
  17 C17          3.0961     2.1336     1.4086 C.ar         1    LIG   0.0000
  18 C18          2.3360     3.3722     1.8548 C.3          1    LIG   0.0000
  19 S19          2.0342     3.2852     3.6374 S.o          1    LIG   0.0000
  20 C20          1.1291     4.7599     4.1687 C.3          1    LIG   0.0000
  21 O21          1.2289     2.0702     3.9461 O.2          1    LIG   0.0000
  22 C22          2.2074    -1.5731     1.6079 C.ar         1    LIG   0.0000
  23 C23          2.9156    -0.5481     2.2322 C.ar         1    LIG   0.0000
  24 C24          4.1568    -0.7539     2.8244 C.ar         1    LIG   0.0000
  25 C25          4.7141    -2.0279     2.7949 C.ar         1    LIG   0.0000
  26 C26          4.0126    -3.0563     2.1748 C.ar         1    LIG   0.0000
  27 C27          2.7687    -2.8486     1.5811 C.ar         1    LIG   0.0000
  28 C28          2.0524    -3.9021     0.9459 C.2          1    LIG   0.0000
  29 O29          2.4914    -5.0420     0.8893 O.2          1    LIG   0.0000
  30 C30         -0.7772    -5.4390     0.4871 C.ar         1    LIG   0.0000
  31 C31         -1.4828    -6.4588    -0.1429 C.ar         1    LIG   0.0000
  32 C32         -2.4563    -7.2875     0.6800 C.3          1    LIG   0.0000
  33 H           -1.7711    -7.8255    -3.1832 H            1    LIG   0.0000
  34 H           -1.8299    -8.6890    -1.7984 H            1    LIG   0.0000
  35 H           -3.0276    -7.6385    -2.1570 H            1    LIG   0.0000
  36 H           -0.2575    -6.1061    -3.1999 H            1    LIG   0.0000
  37 H            0.9641    -4.3471    -2.1281 H            1    LIG   0.0000
  38 H           -1.3222    -1.2441    -0.1414 H            1    LIG   0.0000
  39 H           -0.6966     0.0335     1.0030 H            1    LIG   0.0000
  40 H            2.5961    -0.9475     0.2965 H            1    LIG   0.0000
  41 H            4.9871    -0.9484     0.2984 H            1    LIG   0.0000
  42 H            6.1827     0.9997     1.0002 H            1    LIG   0.0000
  43 H            4.9871     2.9478     1.7035 H            1    LIG   0.0000
  44 H            2.8764     4.1876     1.6477 H            1    LIG   0.0000
  45 H            1.4623     3.4195     1.3707 H            1    LIG   0.0000
  46 H            1.6696     5.5754     3.9615 H            1    LIG   0.0000
  47 H            0.2554     4.8072     3.6846 H            1    LIG   0.0000
  48 H            0.9624     4.7119     5.1535 H            1    LIG   0.0000
  49 H            2.5168     0.3686     2.2552 H            1    LIG   0.0000
  50 H            4.6412     0.0022     3.2645 H            1    LIG   0.0000
  51 H            5.6056    -2.2018     3.2131 H            1    LIG   0.0000
  52 H            4.4128    -3.9725     2.1543 H            1    LIG   0.0000
  53 H           -0.9121    -5.2599     1.4617 H            1    LIG   0.0000
  54 H           -2.4542    -6.9624     1.6257 H            1    LIG   0.0000
  55 H           -3.3762    -7.1972     0.2985 H            1    LIG   0.0000
  56 H           -2.1787    -8.2479     0.6571 H            1    LIG   0.0000
@<TRIPOS>BOND
   1        1        2 1
   2        2        3 ar
   3        3        4 ar
   4        4        5 ar
   5        5        6 1
   6        6        7 1
   7        7        8 1
   8        7        9 2
   9        9       10 1
  10       10       11 2
  11       11       12 1
  12       12       13 ar
  13       13       14 ar
  14       14       15 ar
  15       15       16 ar
  16       16       17 ar
  17       17       12 ar
  18       17       18 1
  19       18       19 1
  20       19       20 1
  21       19       21 2
  22        9       22 1
  23       22       23 ar
  24       23       24 ar
  25       24       25 ar
  26       25       26 ar
  27       26       27 ar
  28       27       22 ar
  29       27       28 1
  30       28        6 1
  31       28       29 2
  32        5       30 ar
  33       30       31 ar
  34       31        2 ar
  35       31       32 1
  36        1       33 1
  37        1       34 1
  38        1       35 1
  39        3       36 1
  40        4       37 1
  41        8       38 1
  42       10       39 1
  43       13       40 1
  44       14       41 1
  45       15       42 1
  46       16       43 1
  47       18       44 1
  48       18       45 1
  49       20       46 1
  50       20       47 1
  51       20       48 1
  52       23       49 1
  53       24       50 1
  54       25       51 1
  55       26       52 1
  56       30       53 1
  57       32       54 1
  58       32       55 1
  59       32       56 1

@<TRIPOS>MOLECULE

  56   59
SMALL
USER_CHARGES
@<TRIPOS>ATOM
   1 C1           7.9121    -2.9349     4.1636 C.3          1    LIG   0.0000
   2 C2           6.5365    -2.8710     3.5197 C.ar         1    LIG   0.0000
   3 C3           6.4502    -2.5767     2.1633 C.ar         1    LIG   0.0000
   4 C4           5.2124    -2.5080     1.5325 C.ar         1    LIG   0.0000
   5 C5           4.0621    -2.7383     2.2797 C.ar         1    LIG   0.0000
   6 N6           2.8143    -2.6706     1.6491 N.pl3        1    LIG   0.0000
   7 C7           2.1619    -1.4643     1.6120 C.2          1    LIG   0.0000
   8 O8           2.7249    -0.3741     2.1771 O.3          1    LIG   0.0000
   9 C9           0.9375    -1.3413     1.0074 C.2          1    LIG   0.0000
  10 C10          0.3010    -0.0363     1.0033 C.2          1    LIG   0.0000
  11 N11          1.0000     1.0000     1.0000 N.2          1    LIG   0.0000
  12 C12          2.4004     1.0000     1.0000 C.ar         1    LIG   0.0000
  13 C13          3.0961    -0.1331     0.5910 C.ar         1    LIG   0.0000
  14 C14          4.4872    -0.1335     0.5917 C.ar         1    LIG   0.0000
  15 C15          5.1827     0.9997     1.0003 C.ar         1    LIG   0.0000
  16 C16          4.4871     2.1333     1.4092 C.ar         1    LIG   0.0000
  17 C17          3.0961     2.1336     1.4086 C.ar         1    LIG   0.0000
  18 C18          2.3360     3.3722     1.8548 C.3          1    LIG   0.0000
  19 S19          2.0342     3.2852     3.6374 S.o          1    LIG   0.0000
  20 C20          1.1291     4.7599     4.1687 C.3          1    LIG   0.0000
  21 O21          1.2289     2.0702     3.9461 O.2          1    LIG   0.0000
  22 C22          0.3398    -2.4878     0.4111 C.ar         1    LIG   0.0000
  23 C23         -0.9024    -2.4180    -0.2166 C.ar         1    LIG   0.0000
  24 C24         -1.5029    -3.5257    -0.8047 C.ar         1    LIG   0.0000
  25 C25         -0.8421    -4.7490    -0.7673 C.ar         1    LIG   0.0000
  26 C26          0.3986    -4.8263    -0.1438 C.ar         1    LIG   0.0000
  27 C27          0.9993    -3.7152     0.4458 C.ar         1    LIG   0.0000
  28 C28          2.2689    -3.7960     1.0845 C.2          1    LIG   0.0000
  29 O29          2.8967    -4.8435     1.1480 O.2          1    LIG   0.0000
  30 C30          4.1346    -3.0333     3.6375 C.ar         1    LIG   0.0000
  31 C31          5.3781    -3.0991     4.2573 C.ar         1    LIG   0.0000
  32 C32          5.4362    -3.4231     5.7416 C.3          1    LIG   0.0000
  33 H            8.6117    -2.7435     3.4751 H            1    LIG   0.0000
  34 H            7.9697    -2.2554     4.8950 H            1    LIG   0.0000
  35 H            8.0599    -3.8477     4.5442 H            1    LIG   0.0000
  36 H            7.2848    -2.4132     1.6372 H            1    LIG   0.0000
  37 H            5.1505    -2.2964     0.5571 H            1    LIG   0.0000
  38 H            2.2493     0.5051     2.1500 H            1    LIG   0.0000
  39 H           -0.6966     0.0335     1.0030 H            1    LIG   0.0000
  40 H            2.5961    -0.9475     0.2965 H            1    LIG   0.0000
  41 H            4.9871    -0.9484     0.2984 H            1    LIG   0.0000
  42 H            6.1827     0.9997     1.0002 H            1    LIG   0.0000
  43 H            4.9871     2.9478     1.7035 H            1    LIG   0.0000
  44 H            2.8764     4.1876     1.6477 H            1    LIG   0.0000
  45 H            1.4623     3.4195     1.3707 H            1    LIG   0.0000
  46 H            1.6696     5.5754     3.9615 H            1    LIG   0.0000
  47 H            0.2554     4.8072     3.6846 H            1    LIG   0.0000
  48 H            0.9624     4.7119     5.1535 H            1    LIG   0.0000
  49 H           -1.3791    -1.5394    -0.2453 H            1    LIG   0.0000
  50 H           -2.3958    -3.4441    -1.2474 H            1    LIG   0.0000
  51 H           -1.2530    -5.5607    -1.1825 H            1    LIG   0.0000
  52 H            0.8742    -5.7055    -0.1177 H            1    LIG   0.0000
  53 H            3.2999    -3.1965     4.1633 H            1    LIG   0.0000
  54 H            4.5082    -3.5527     6.0911 H            1    LIG   0.0000
  55 H            5.9643    -4.2610     5.8795 H            1    LIG   0.0000
  56 H            5.8742    -2.6688     6.2306 H            1    LIG   0.0000
@<TRIPOS>BOND
   1        1        2 1
   2        2        3 ar
   3        3        4 ar
   4        4        5 ar
   5        5        6 1
   6        6        7 1
   7        7        8 1
   8        7        9 2
   9        9       10 1
  10       10       11 2
  11       11       12 1
  12       12       13 ar
  13       13       14 ar
  14       14       15 ar
  15       15       16 ar
  16       16       17 ar
  17       17       12 ar
  18       17       18 1
  19       18       19 1
  20       19       20 1
  21       19       21 2
  22        9       22 1
  23       22       23 ar
  24       23       24 ar
  25       24       25 ar
  26       25       26 ar
  27       26       27 ar
  28       27       22 ar
  29       27       28 1
  30       28        6 1
  31       28       29 2
  32        5       30 ar
  33       30       31 ar
  34       31        2 ar
  35       31       32 1
  36        1       33 1
  37        1       34 1
  38        1       35 1
  39        3       36 1
  40        4       37 1
  41        8       38 1
  42       10       39 1
  43       13       40 1
  44       14       41 1
  45       15       42 1
  46       16       43 1
  47       18       44 1
  48       18       45 1
  49       20       46 1
  50       20       47 1
  51       20       48 1
  52       23       49 1
  53       24       50 1
  54       25       51 1
  55       26       52 1
  56       30       53 1
  57       32       54 1
  58       32       55 1
  59       32       56 1

@<TRIPOS>MOLECULE

  56   59
SMALL
USER_CHARGES
@<TRIPOS>ATOM
   1 C1           7.8615    -2.9568     4.2614 C.3          1    LIG   0.0000
   2 C2           6.5280    -2.8737     3.5362 C.ar         1    LIG   0.0000
   3 C3           5.3623    -3.1000     4.2600 C.ar         1    LIG   0.0000
   4 C4           4.1201    -3.0341     3.6375 C.ar         1    LIG   0.0000
   5 C5           4.0621    -2.7383     2.2797 C.ar         1    LIG   0.0000
   6 N6           2.8143    -2.6706     1.6491 N.pl3        1    LIG   0.0000
   7 C7           2.1619    -1.4643     1.6120 C.2          1    LIG   0.0000
   8 O8           2.7249    -0.3741     2.1771 O.3          1    LIG   0.0000
   9 C9           0.9375    -1.3413     1.0074 C.2          1    LIG   0.0000
  10 C10          0.3010    -0.0363     1.0033 C.2          1    LIG   0.0000
  11 N11          1.0000     1.0000     1.0000 N.2          1    LIG   0.0000
  12 C12          2.4004     1.0000     1.0000 C.ar         1    LIG   0.0000
  13 C13          3.0961    -0.1331     0.5910 C.ar         1    LIG   0.0000
  14 C14          4.4872    -0.1335     0.5917 C.ar         1    LIG   0.0000
  15 C15          5.1827     0.9997     1.0003 C.ar         1    LIG   0.0000
  16 C16          4.4871     2.1333     1.4092 C.ar         1    LIG   0.0000
  17 C17          3.0961     2.1336     1.4086 C.ar         1    LIG   0.0000
  18 C18          2.3360     3.3722     1.8548 C.3          1    LIG   0.0000
  19 S19          2.0342     3.2852     3.6374 S.o          1    LIG   0.0000
  20 C20          1.1291     4.7599     4.1687 C.3          1    LIG   0.0000
  21 O21          1.2289     2.0702     3.9461 O.2          1    LIG   0.0000
  22 C22          0.3398    -2.4878     0.4111 C.ar         1    LIG   0.0000
  23 C23         -0.9024    -2.4180    -0.2166 C.ar         1    LIG   0.0000
  24 C24         -1.5029    -3.5257    -0.8047 C.ar         1    LIG   0.0000
  25 C25         -0.8421    -4.7490    -0.7673 C.ar         1    LIG   0.0000
  26 C26          0.3986    -4.8263    -0.1438 C.ar         1    LIG   0.0000
  27 C27          0.9993    -3.7152     0.4458 C.ar         1    LIG   0.0000
  28 C28          2.2689    -3.7960     1.0845 C.2          1    LIG   0.0000
  29 O29          2.8967    -4.8435     1.1480 O.2          1    LIG   0.0000
  30 C30          5.2209    -2.5101     1.5441 C.ar         1    LIG   0.0000
  31 C31          6.4574    -2.5788     2.1776 C.ar         1    LIG   0.0000
  32 C32          7.7117    -2.3261     1.3565 C.3          1    LIG   0.0000
  33 H            7.7043    -3.1776     5.2240 H            1    LIG   0.0000
  34 H            8.4243    -3.6699     3.8435 H            1    LIG   0.0000
  35 H            8.3331    -2.0776     4.1938 H            1    LIG   0.0000
  36 H            5.4175    -3.3118     5.2357 H            1    LIG   0.0000
  37 H            3.2820    -3.1968     4.1581 H            1    LIG   0.0000
  38 H            2.2493     0.5051     2.1500 H            1    LIG   0.0000
  39 H           -0.6966     0.0335     1.0030 H            1    LIG   0.0000
  40 H            2.5961    -0.9475     0.2965 H            1    LIG   0.0000
  41 H            4.9871    -0.9484     0.2984 H            1    LIG   0.0000
  42 H            6.1827     0.9997     1.0002 H            1    LIG   0.0000
  43 H            4.9871     2.9478     1.7035 H            1    LIG   0.0000
  44 H            2.8764     4.1876     1.6477 H            1    LIG   0.0000
  45 H            1.4623     3.4195     1.3707 H            1    LIG   0.0000
  46 H            1.6696     5.5754     3.9615 H            1    LIG   0.0000
  47 H            0.2554     4.8072     3.6846 H            1    LIG   0.0000
  48 H            0.9624     4.7119     5.1535 H            1    LIG   0.0000
  49 H           -1.3791    -1.5394    -0.2453 H            1    LIG   0.0000
  50 H           -2.3958    -3.4441    -1.2474 H            1    LIG   0.0000
  51 H           -1.2530    -5.5607    -1.1825 H            1    LIG   0.0000
  52 H            0.8742    -5.7055    -0.1177 H            1    LIG   0.0000
  53 H            5.1653    -2.2986     0.5684 H            1    LIG   0.0000
  54 H            7.4566    -2.1323     0.4092 H            1    LIG   0.0000
  55 H            8.2061    -1.5436     1.7353 H            1    LIG   0.0000
  56 H            8.2976    -3.1360     1.3849 H            1    LIG   0.0000
@<TRIPOS>BOND
   1        1        2 1
   2        2        3 ar
   3        3        4 ar
   4        4        5 ar
   5        5        6 1
   6        6        7 1
   7        7        8 1
   8        7        9 2
   9        9       10 1
  10       10       11 2
  11       11       12 1
  12       12       13 ar
  13       13       14 ar
  14       14       15 ar
  15       15       16 ar
  16       16       17 ar
  17       17       12 ar
  18       17       18 1
  19       18       19 1
  20       19       20 1
  21       19       21 2
  22        9       22 1
  23       22       23 ar
  24       23       24 ar
  25       24       25 ar
  26       25       26 ar
  27       26       27 ar
  28       27       22 ar
  29       27       28 1
  30       28        6 1
  31       28       29 2
  32        5       30 ar
  33       30       31 ar
  34       31        2 ar
  35       31       32 1
  36        1       33 1
  37        1       34 1
  38        1       35 1
  39        3       36 1
  40        4       37 1
  41        8       38 1
  42       10       39 1
  43       13       40 1
  44       14       41 1
  45       15       42 1
  46       16       43 1
  47       18       44 1
  48       18       45 1
  49       20       46 1
  50       20       47 1
  51       20       48 1
  52       23       49 1
  53       24       50 1
  54       25       51 1
  55       26       52 1
  56       30       53 1
  57       32       54 1
  58       32       55 1
  59       32       56 1

@<TRIPOS>MOLECULE

  56   59
SMALL
USER_CHARGES
@<TRIPOS>ATOM
   1 C1          -2.0523    -7.8573    -2.1323 C.3          1    LIG   0.0000
   2 C2          -1.2911    -6.7114    -1.4852 C.ar         1    LIG   0.0000
   3 C3          -0.6059    -6.9540    -0.2996 C.ar         1    LIG   0.0000
   4 C4           0.1039    -5.9353     0.3273 C.ar         1    LIG   0.0000
   5 C5           0.1178    -4.6700    -0.2502 C.ar         1    LIG   0.0000
   6 N6           0.8311    -3.6418     0.3770 N.pl3        1    LIG   0.0000
   7 C7           0.2821    -2.3849     0.4063 C.2          1    LIG   0.0000
   8 O8          -0.9222    -2.1603    -0.1628 O.3          1    LIG   0.0000
   9 C9           0.9375    -1.3413     1.0074 C.2          1    LIG   0.0000
  10 C10          0.3010    -0.0363     1.0033 C.2          1    LIG   0.0000
  11 N11          1.0000     1.0000     1.0000 N.2          1    LIG   0.0000
  12 C12          2.4004     1.0000     1.0000 C.ar         1    LIG   0.0000
  13 C13          3.0961    -0.1331     0.5910 C.ar         1    LIG   0.0000
  14 C14          4.4872    -0.1335     0.5917 C.ar         1    LIG   0.0000
  15 C15          5.1827     0.9997     1.0003 C.ar         1    LIG   0.0000
  16 C16          4.4871     2.1333     1.4092 C.ar         1    LIG   0.0000
  17 C17          3.0961     2.1336     1.4086 C.ar         1    LIG   0.0000
  18 C18          2.3360     3.3722     1.8548 C.3          1    LIG   0.0000
  19 S19          3.1665     4.8505     1.2217 S.o          1    LIG   0.0000
  20 C20          2.2615     6.3252     1.7530 C.3          1    LIG   0.0000
  21 O21          4.5580     4.9039     1.7518 O.2          1    LIG   0.0000
  22 C22          2.2074    -1.5731     1.6079 C.ar         1    LIG   0.0000
  23 C23          2.9156    -0.5481     2.2322 C.ar         1    LIG   0.0000
  24 C24          4.1568    -0.7539     2.8244 C.ar         1    LIG   0.0000
  25 C25          4.7141    -2.0279     2.7949 C.ar         1    LIG   0.0000
  26 C26          4.0126    -3.0563     2.1748 C.ar         1    LIG   0.0000
  27 C27          2.7687    -2.8486     1.5811 C.ar         1    LIG   0.0000
  28 C28          2.0524    -3.9021     0.9459 C.2          1    LIG   0.0000
  29 O29          2.4914    -5.0420     0.8893 O.2          1    LIG   0.0000
  30 C30         -0.5638    -4.4141    -1.4358 C.ar         1    LIG   0.0000
  31 C31         -1.2703    -5.4408    -2.0535 C.ar         1    LIG   0.0000
  32 C32         -2.0083    -5.1411    -3.3486 C.3          1    LIG   0.0000
  33 H           -1.9471    -8.6827    -1.5776 H            1    LIG   0.0000
  34 H           -3.0216    -7.6197    -2.1960 H            1    LIG   0.0000
  35 H           -1.6889    -8.0232    -3.0491 H            1    LIG   0.0000
  36 H           -0.6237    -7.8681     0.1054 H            1    LIG   0.0000
  37 H            0.5966    -6.1098     1.1798 H            1    LIG   0.0000
  38 H           -1.3222    -1.2441    -0.1414 H            1    LIG   0.0000
  39 H           -0.6966     0.0335     1.0030 H            1    LIG   0.0000
  40 H            2.5961    -0.9475     0.2965 H            1    LIG   0.0000
  41 H            4.9871    -0.9484     0.2984 H            1    LIG   0.0000
  42 H            6.1827     0.9997     1.0002 H            1    LIG   0.0000
  43 H            4.9871     2.9478     1.7035 H            1    LIG   0.0000
  44 H            1.4021     3.3364     1.4991 H            1    LIG   0.0000
  45 H            2.3110     3.4060     2.8540 H            1    LIG   0.0000
  46 H            1.3276     6.2894     1.3973 H            1    LIG   0.0000
  47 H            2.2365     6.3590     2.7522 H            1    LIG   0.0000
  48 H            2.7203     7.1420     1.4032 H            1    LIG   0.0000
  49 H            2.5168     0.3686     2.2552 H            1    LIG   0.0000
  50 H            4.6412     0.0022     3.2645 H            1    LIG   0.0000
  51 H            5.6056    -2.2018     3.2131 H            1    LIG   0.0000
  52 H            4.4128    -3.9725     2.1543 H            1    LIG   0.0000
  53 H           -0.5460    -3.4998    -1.8405 H            1    LIG   0.0000
  54 H           -1.8746    -4.1809    -3.5938 H            1    LIG   0.0000
  55 H           -1.6514    -5.7243    -4.0783 H            1    LIG   0.0000
  56 H           -2.9842    -5.3209    -3.2254 H            1    LIG   0.0000
@<TRIPOS>BOND
   1        1        2 1
   2        2        3 ar
   3        3        4 ar
   4        4        5 ar
   5        5        6 1
   6        6        7 1
   7        7        8 1
   8        7        9 2
   9        9       10 1
  10       10       11 2
  11       11       12 1
  12       12       13 ar
  13       13       14 ar
  14       14       15 ar
  15       15       16 ar
  16       16       17 ar
  17       17       12 ar
  18       17       18 1
  19       18       19 1
  20       19       20 1
  21       19       21 2
  22        9       22 1
  23       22       23 ar
  24       23       24 ar
  25       24       25 ar
  26       25       26 ar
  27       26       27 ar
  28       27       22 ar
  29       27       28 1
  30       28        6 1
  31       28       29 2
  32        5       30 ar
  33       30       31 ar
  34       31        2 ar
  35       31       32 1
  36        1       33 1
  37        1       34 1
  38        1       35 1
  39        3       36 1
  40        4       37 1
  41        8       38 1
  42       10       39 1
  43       13       40 1
  44       14       41 1
  45       15       42 1
  46       16       43 1
  47       18       44 1
  48       18       45 1
  49       20       46 1
  50       20       47 1
  51       20       48 1
  52       23       49 1
  53       24       50 1
  54       25       51 1
  55       26       52 1
  56       30       53 1
  57       32       54 1
  58       32       55 1
  59       32       56 1

@<TRIPOS>MOLECULE

  56   59
SMALL
USER_CHARGES
@<TRIPOS>ATOM
   1 C1          -2.0445    -7.7907     4.2722 C.3          1    LIG   0.0000
   2 C2          -1.2912    -6.6887     3.5448 C.ar         1    LIG   0.0000
   3 C3          -0.3942    -5.9084     4.2663 C.ar         1    LIG   0.0000
   4 C4           0.3169    -4.8891     3.6417 C.ar         1    LIG   0.0000
   5 C5           0.1169    -4.6625     2.2841 C.ar         1    LIG   0.0000
   6 N6           0.8306    -3.6381     1.6512 N.pl3        1    LIG   0.0000
   7 C7           0.2817    -2.3813     1.6141 C.2          1    LIG   0.0000
   8 O8          -0.9232    -2.1535     2.1806 O.3          1    LIG   0.0000
   9 C9           0.9375    -1.3413     1.0074 C.2          1    LIG   0.0000
  10 C10          0.3010    -0.0363     1.0033 C.2          1    LIG   0.0000
  11 N11          1.0000     1.0000     1.0000 N.2          1    LIG   0.0000
  12 C12          2.4004     1.0000     1.0000 C.ar         1    LIG   0.0000
  13 C13          3.0961    -0.1309     1.4150 C.ar         1    LIG   0.0000
  14 C14          4.4872    -0.1307     1.4158 C.ar         1    LIG   0.0000
  15 C15          5.1827     1.0000     1.0004 C.ar         1    LIG   0.0000
  16 C16          4.4871     2.1312     0.5850 C.ar         1    LIG   0.0000
  17 C17          3.0961     2.1310     0.5843 C.ar         1    LIG   0.0000
  18 C18          2.3360     3.3667     0.1300 C.3          1    LIG   0.0000
  19 S19          2.0342     4.4459     1.5514 S.o          1    LIG   0.0000
  20 C20          1.1291     5.9171     1.0106 C.3          1    LIG   0.0000
  21 O21          1.2289     3.7135     2.5689 O.2          1    LIG   0.0000
  22 C22          2.2074    -1.5769     0.4082 C.ar         1    LIG   0.0000
  23 C23          2.9165    -0.5554    -0.2208 C.ar         1    LIG   0.0000
  24 C24          4.1577    -0.7649    -0.8117 C.ar         1    LIG   0.0000
  25 C25          4.7147    -2.0388    -0.7746 C.ar         1    LIG   0.0000
  26 C26          4.0137    -3.0631    -0.1474 C.ar         1    LIG   0.0000
  27 C27          2.7692    -2.8519     0.4441 C.ar         1    LIG   0.0000
  28 C28          2.0524    -3.9016     1.0850 C.2          1    LIG   0.0000
  29 O29          2.4918    -5.0410     1.1493 O.2          1    LIG   0.0000
  30 C30         -0.7778    -5.4358     1.5509 C.ar         1    LIG   0.0000
  31 C31         -1.4832    -6.4522     2.1865 C.ar         1    LIG   0.0000
  32 C32         -2.4559    -7.2861     1.3679 C.3          1    LIG   0.0000
  33 H           -1.7715    -7.8022     5.2341 H            1    LIG   0.0000
  34 H           -3.0279    -7.6215     4.2067 H            1    LIG   0.0000
  35 H           -1.8296    -8.6734     3.8541 H            1    LIG   0.0000
  36 H           -0.2594    -6.0815     5.2419 H            1    LIG   0.0000
  37 H            0.9618    -4.3281     4.1606 H            1    LIG   0.0000
  38 H           -1.3233    -1.2374     2.1535 H            1    LIG   0.0000
  39 H           -0.6966     0.0335     1.0030 H            1    LIG   0.0000
  40 H            2.5961    -0.9441     1.7129 H            1    LIG   0.0000
  41 H            4.9871    -0.9435     1.7150 H            1    LIG   0.0000
  42 H            6.1827     0.9999     1.0003 H            1    LIG   0.0000
  43 H            4.9871     2.9443     0.2869 H            1    LIG   0.0000
  44 H            2.8764     3.8582    -0.5528 H            1    LIG   0.0000
  45 H            1.4623     3.0918    -0.2712 H            1    LIG   0.0000
  46 H            1.6696     6.4086     0.3277 H            1    LIG   0.0000
  47 H            0.2554     5.6422     0.6093 H            1    LIG   0.0000
  48 H            0.9624     6.5133     1.7959 H            1    LIG   0.0000
  49 H            2.5183     0.3615    -0.2483 H            1    LIG   0.0000
  50 H            4.6421    -0.0115    -1.2564 H            1    LIG   0.0000
  51 H            5.6058    -2.2155    -1.1926 H            1    LIG   0.0000
  52 H            4.4145    -3.9788    -0.1198 H            1    LIG   0.0000
  53 H           -0.9124    -5.2622     0.5753 H            1    LIG   0.0000
  54 H           -2.4539    -6.9661     0.4204 H            1    LIG   0.0000
  55 H           -2.1775    -8.2462     1.3961 H            1    LIG   0.0000
  56 H           -3.3760    -7.1945     1.7487 H            1    LIG   0.0000
@<TRIPOS>BOND
   1        1        2 1
   2        2        3 ar
   3        3        4 ar
   4        4        5 ar
   5        5        6 1
   6        6        7 1
   7        7        8 1
   8        7        9 2
   9        9       10 1
  10       10       11 2
  11       11       12 1
  12       12       13 ar
  13       13       14 ar
  14       14       15 ar
  15       15       16 ar
  16       16       17 ar
  17       17       12 ar
  18       17       18 1
  19       18       19 1
  20       19       20 1
  21       19       21 2
  22        9       22 1
  23       22       23 ar
  24       23       24 ar
  25       24       25 ar
  26       25       26 ar
  27       26       27 ar
  28       27       22 ar
  29       27       28 1
  30       28        6 1
  31       28       29 2
  32        5       30 ar
  33       30       31 ar
  34       31        2 ar
  35       31       32 1
  36        1       33 1
  37        1       34 1
  38        1       35 1
  39        3       36 1
  40        4       37 1
  41        8       38 1
  42       10       39 1
  43       13       40 1
  44       14       41 1
  45       15       42 1
  46       16       43 1
  47       18       44 1
  48       18       45 1
  49       20       46 1
  50       20       47 1
  51       20       48 1
  52       23       49 1
  53       24       50 1
  54       25       51 1
  55       26       52 1
  56       30       53 1
  57       32       54 1
  58       32       55 1
  59       32       56 1

@<TRIPOS>MOLECULE

  56   59
SMALL
USER_CHARGES
@<TRIPOS>ATOM
   1 C1          -2.0968    -7.8141     4.1755 C.3          1    LIG   0.0000
   2 C2          -1.3006    -6.6920     3.5289 C.ar         1    LIG   0.0000
   3 C3          -1.4815    -6.4445     2.1724 C.ar         1    LIG   0.0000
   4 C4          -0.7742    -5.4278     1.5393 C.ar         1    LIG   0.0000
   5 C5           0.1169    -4.6625     2.2841 C.ar         1    LIG   0.0000
   6 N6           0.8306    -3.6381     1.6512 N.pl3        1    LIG   0.0000
   7 C7           0.2817    -2.3813     1.6141 C.2          1    LIG   0.0000
   8 O8          -0.9232    -2.1535     2.1806 O.3          1    LIG   0.0000
   9 C9           0.9375    -1.3413     1.0074 C.2          1    LIG   0.0000
  10 C10          0.3010    -0.0363     1.0033 C.2          1    LIG   0.0000
  11 N11          1.0000     1.0000     1.0000 N.2          1    LIG   0.0000
  12 C12          2.4004     1.0000     1.0000 C.ar         1    LIG   0.0000
  13 C13          3.0961    -0.1309     1.4150 C.ar         1    LIG   0.0000
  14 C14          4.4872    -0.1307     1.4158 C.ar         1    LIG   0.0000
  15 C15          5.1827     1.0000     1.0004 C.ar         1    LIG   0.0000
  16 C16          4.4871     2.1312     0.5850 C.ar         1    LIG   0.0000
  17 C17          3.0961     2.1310     0.5843 C.ar         1    LIG   0.0000
  18 C18          2.3360     3.3667     0.1300 C.3          1    LIG   0.0000
  19 S19          2.0342     4.4459     1.5514 S.o          1    LIG   0.0000
  20 C20          1.1291     5.9171     1.0106 C.3          1    LIG   0.0000
  21 O21          1.2289     3.7135     2.5689 O.2          1    LIG   0.0000
  22 C22          2.2074    -1.5769     0.4082 C.ar         1    LIG   0.0000
  23 C23          2.9165    -0.5554    -0.2208 C.ar         1    LIG   0.0000
  24 C24          4.1577    -0.7649    -0.8117 C.ar         1    LIG   0.0000
  25 C25          4.7147    -2.0388    -0.7746 C.ar         1    LIG   0.0000
  26 C26          4.0137    -3.0631    -0.1474 C.ar         1    LIG   0.0000
  27 C27          2.7692    -2.8519     0.4441 C.ar         1    LIG   0.0000
  28 C28          2.0524    -3.9016     1.0850 C.2          1    LIG   0.0000
  29 O29          2.4918    -5.0410     1.1493 O.2          1    LIG   0.0000
  30 C30          0.3073    -4.9001     3.6417 C.ar         1    LIG   0.0000
  31 C31         -0.4056    -5.9196     4.2639 C.ar         1    LIG   0.0000
  32 C32         -0.1836    -6.1631     5.7481 C.3          1    LIG   0.0000
  33 H           -2.6799    -8.2478     3.4886 H            1    LIG   0.0000
  34 H           -1.4682    -8.4926     4.5556 H            1    LIG   0.0000
  35 H           -2.6659    -7.4399     4.9077 H            1    LIG   0.0000
  36 H           -2.1252    -7.0018     1.6481 H            1    LIG   0.0000
  37 H           -0.9044    -5.2499     0.5639 H            1    LIG   0.0000
  38 H           -1.3233    -1.2374     2.1535 H            1    LIG   0.0000
  39 H           -0.6966     0.0335     1.0030 H            1    LIG   0.0000
  40 H            2.5961    -0.9441     1.7129 H            1    LIG   0.0000
  41 H            4.9871    -0.9435     1.7150 H            1    LIG   0.0000
  42 H            6.1827     0.9999     1.0003 H            1    LIG   0.0000
  43 H            4.9871     2.9443     0.2869 H            1    LIG   0.0000
  44 H            2.8764     3.8582    -0.5528 H            1    LIG   0.0000
  45 H            1.4623     3.0918    -0.2712 H            1    LIG   0.0000
  46 H            1.6696     6.4086     0.3277 H            1    LIG   0.0000
  47 H            0.2554     5.6422     0.6093 H            1    LIG   0.0000
  48 H            0.9624     6.5133     1.7959 H            1    LIG   0.0000
  49 H            2.5183     0.3615    -0.2483 H            1    LIG   0.0000
  50 H            4.6421    -0.0115    -1.2564 H            1    LIG   0.0000
  51 H            5.6058    -2.2155    -1.1926 H            1    LIG   0.0000
  52 H            4.4145    -3.9788    -0.1198 H            1    LIG   0.0000
  53 H            0.9513    -4.3426     4.1657 H            1    LIG   0.0000
  54 H            0.4910    -5.5118     6.0956 H            1    LIG   0.0000
  55 H           -1.0467    -6.0424     6.2385 H            1    LIG   0.0000
  56 H            0.1509    -7.0953     5.8866 H            1    LIG   0.0000
@<TRIPOS>BOND
   1        1        2 1
   2        2        3 ar
   3        3        4 ar
   4        4        5 ar
   5        5        6 1
   6        6        7 1
   7        7        8 1
   8        7        9 2
   9        9       10 1
  10       10       11 2
  11       11       12 1
  12       12       13 ar
  13       13       14 ar
  14       14       15 ar
  15       15       16 ar
  16       16       17 ar
  17       17       12 ar
  18       17       18 1
  19       18       19 1
  20       19       20 1
  21       19       21 2
  22        9       22 1
  23       22       23 ar
  24       23       24 ar
  25       24       25 ar
  26       25       26 ar
  27       26       27 ar
  28       27       22 ar
  29       27       28 1
  30       28        6 1
  31       28       29 2
  32        5       30 ar
  33       30       31 ar
  34       31        2 ar
  35       31       32 1
  36        1       33 1
  37        1       34 1
  38        1       35 1
  39        3       36 1
  40        4       37 1
  41        8       38 1
  42       10       39 1
  43       13       40 1
  44       14       41 1
  45       15       42 1
  46       16       43 1
  47       18       44 1
  48       18       45 1
  49       20       46 1
  50       20       47 1
  51       20       48 1
  52       23       49 1
  53       24       50 1
  54       25       51 1
  55       26       52 1
  56       30       53 1
  57       32       54 1
  58       32       55 1
  59       32       56 1

@<TRIPOS>MOLECULE

  56   59
SMALL
USER_CHARGES
@<TRIPOS>ATOM
   1 C1           7.8637    -2.9786    -2.2321 C.3          1    LIG   0.0000
   2 C2           6.5297    -2.8901    -1.5084 C.ar         1    LIG   0.0000
   3 C3           5.3644    -3.1201    -2.2316 C.ar         1    LIG   0.0000
   4 C4           4.1218    -3.0498    -1.6105 C.ar         1    LIG   0.0000
   5 C5           4.0630    -2.7458    -0.2545 C.ar         1    LIG   0.0000
   6 N6           2.8148    -2.6743     0.3749 N.pl3        1    LIG   0.0000
   7 C7           2.1623    -1.4679     0.4043 C.2          1    LIG   0.0000
   8 O8           2.7260    -0.3810    -0.1663 O.3          1    LIG   0.0000
   9 C9           0.9375    -1.3413     1.0074 C.2          1    LIG   0.0000
  10 C10          0.3010    -0.0363     1.0033 C.2          1    LIG   0.0000
  11 N11          1.0000     1.0000     1.0000 N.2          1    LIG   0.0000
  12 C12          2.4004     1.0000     1.0000 C.ar         1    LIG   0.0000
  13 C13          3.0961    -0.1309     1.4150 C.ar         1    LIG   0.0000
  14 C14          4.4872    -0.1307     1.4158 C.ar         1    LIG   0.0000
  15 C15          5.1827     1.0000     1.0004 C.ar         1    LIG   0.0000
  16 C16          4.4871     2.1312     0.5850 C.ar         1    LIG   0.0000
  17 C17          3.0961     2.1310     0.5843 C.ar         1    LIG   0.0000
  18 C18          2.3360     3.3667     0.1300 C.3          1    LIG   0.0000
  19 S19          2.0342     4.4459     1.5514 S.o          1    LIG   0.0000
  20 C20          1.1291     5.9171     1.0106 C.3          1    LIG   0.0000
  21 O21          1.2289     3.7135     2.5689 O.2          1    LIG   0.0000
  22 C22          0.3398    -2.4840     1.6108 C.ar         1    LIG   0.0000
  23 C23         -0.9032    -2.4107     2.2364 C.ar         1    LIG   0.0000
  24 C24         -1.5037    -3.5147     2.8315 C.ar         1    LIG   0.0000
  25 C25         -0.8428    -4.7381     2.8022 C.ar         1    LIG   0.0000
  26 C26          0.3975    -4.8195     2.1784 C.ar         1    LIG   0.0000
  27 C27          0.9988    -3.7119     1.5827 C.ar         1    LIG   0.0000
  28 C28          2.2688    -3.7965     0.9455 C.2          1    LIG   0.0000
  29 O29          2.8963    -4.8445     0.8880 O.2          1    LIG   0.0000
  30 C30          5.2213    -2.5131     0.4803 C.ar         1    LIG   0.0000
  31 C31          6.4582    -2.5862    -0.1518 C.ar         1    LIG   0.0000
  32 C32          7.7121    -2.3290     0.6686 C.3          1    LIG   0.0000
  33 H            7.7071    -3.2056    -3.1933 H            1    LIG   0.0000
  34 H            8.3356    -2.0991    -2.1699 H            1    LIG   0.0000
  35 H            8.4259    -3.6892    -1.8090 H            1    LIG   0.0000
  36 H            5.4202    -3.3379    -3.2061 H            1    LIG   0.0000
  37 H            3.2839    -3.2153    -2.1307 H            1    LIG   0.0000
  38 H            2.2503     0.4984    -0.1449 H            1    LIG   0.0000
  39 H           -0.6966     0.0335     1.0030 H            1    LIG   0.0000
  40 H            2.5961    -0.9441     1.7129 H            1    LIG   0.0000
  41 H            4.9871    -0.9435     1.7150 H            1    LIG   0.0000
  42 H            6.1827     0.9999     1.0003 H            1    LIG   0.0000
  43 H            4.9871     2.9443     0.2869 H            1    LIG   0.0000
  44 H            2.8764     3.8582    -0.5528 H            1    LIG   0.0000
  45 H            1.4623     3.0918    -0.2712 H            1    LIG   0.0000
  46 H            1.6696     6.4086     0.3277 H            1    LIG   0.0000
  47 H            0.2554     5.6422     0.6093 H            1    LIG   0.0000
  48 H            0.9624     6.5133     1.7959 H            1    LIG   0.0000
  49 H           -1.3807    -1.5323     2.2583 H            1    LIG   0.0000
  50 H           -2.3968    -3.4304     3.2735 H            1    LIG   0.0000
  51 H           -1.2531    -5.5470     3.2233 H            1    LIG   0.0000
  52 H            0.8725    -5.6992     2.1565 H            1    LIG   0.0000
  53 H            5.1651    -2.2953     1.4547 H            1    LIG   0.0000
  54 H            7.4564    -2.1288     1.6144 H            1    LIG   0.0000
  55 H            8.2974    -3.1396     0.6460 H            1    LIG   0.0000
  56 H            8.2073    -1.5495     0.2851 H            1    LIG   0.0000
@<TRIPOS>BOND
   1        1        2 1
   2        2        3 ar
   3        3        4 ar
   4        4        5 ar
   5        5        6 1
   6        6        7 1
   7        7        8 1
   8        7        9 2
   9        9       10 1
  10       10       11 2
  11       11       12 1
  12       12       13 ar
  13       13       14 ar
  14       14       15 ar
  15       15       16 ar
  16       16       17 ar
  17       17       12 ar
  18       17       18 1
  19       18       19 1
  20       19       20 1
  21       19       21 2
  22        9       22 1
  23       22       23 ar
  24       23       24 ar
  25       24       25 ar
  26       25       26 ar
  27       26       27 ar
  28       27       22 ar
  29       27       28 1
  30       28        6 1
  31       28       29 2
  32        5       30 ar
  33       30       31 ar
  34       31        2 ar
  35       31       32 1
  36        1       33 1
  37        1       34 1
  38        1       35 1
  39        3       36 1
  40        4       37 1
  41        8       38 1
  42       10       39 1
  43       13       40 1
  44       14       41 1
  45       15       42 1
  46       16       43 1
  47       18       44 1
  48       18       45 1
  49       20       46 1
  50       20       47 1
  51       20       48 1
  52       23       49 1
  53       24       50 1
  54       25       51 1
  55       26       52 1
  56       30       53 1
  57       32       54 1
  58       32       55 1
  59       32       56 1

@<TRIPOS>MOLECULE

  56   59
SMALL
USER_CHARGES
@<TRIPOS>ATOM
   1 C1           7.9140    -2.9513    -2.1354 C.3          1    LIG   0.0000
   2 C2           6.5380    -2.8846    -1.4925 C.ar         1    LIG   0.0000
   3 C3           6.4510    -2.5828    -0.1378 C.ar         1    LIG   0.0000
   4 C4           5.2129    -2.5110     0.4919 C.ar         1    LIG   0.0000
   5 C5           4.0630    -2.7458    -0.2545 C.ar         1    LIG   0.0000
   6 N6           2.8148    -2.6743     0.3749 N.pl3        1    LIG   0.0000
   7 C7           2.1623    -1.4679     0.4043 C.2          1    LIG   0.0000
   8 O8           2.7260    -0.3810    -0.1663 O.3          1    LIG   0.0000
   9 C9           0.9375    -1.3413     1.0074 C.2          1    LIG   0.0000
  10 C10          0.3010    -0.0363     1.0033 C.2          1    LIG   0.0000
  11 N11          1.0000     1.0000     1.0000 N.2          1    LIG   0.0000
  12 C12          2.4004     1.0000     1.0000 C.ar         1    LIG   0.0000
  13 C13          3.0961    -0.1309     1.4150 C.ar         1    LIG   0.0000
  14 C14          4.4872    -0.1307     1.4158 C.ar         1    LIG   0.0000
  15 C15          5.1827     1.0000     1.0004 C.ar         1    LIG   0.0000
  16 C16          4.4871     2.1312     0.5850 C.ar         1    LIG   0.0000
  17 C17          3.0961     2.1310     0.5843 C.ar         1    LIG   0.0000
  18 C18          2.3360     3.3667     0.1300 C.3          1    LIG   0.0000
  19 S19          2.0342     4.4459     1.5514 S.o          1    LIG   0.0000
  20 C20          1.1291     5.9171     1.0106 C.3          1    LIG   0.0000
  21 O21          1.2289     3.7135     2.5689 O.2          1    LIG   0.0000
  22 C22          0.3398    -2.4840     1.6108 C.ar         1    LIG   0.0000
  23 C23         -0.9032    -2.4107     2.2364 C.ar         1    LIG   0.0000
  24 C24         -1.5037    -3.5147     2.8315 C.ar         1    LIG   0.0000
  25 C25         -0.8428    -4.7381     2.8022 C.ar         1    LIG   0.0000
  26 C26          0.3975    -4.8195     2.1784 C.ar         1    LIG   0.0000
  27 C27          0.9988    -3.7119     1.5827 C.ar         1    LIG   0.0000
  28 C28          2.2688    -3.7965     0.9455 C.2          1    LIG   0.0000
  29 O29          2.8963    -4.8445     0.8880 O.2          1    LIG   0.0000
  30 C30          4.1363    -3.0490    -1.6105 C.ar         1    LIG   0.0000
  31 C31          5.3802    -3.1180    -2.2293 C.ar         1    LIG   0.0000
  32 C32          5.4391    -3.4504    -3.7117 C.3          1    LIG   0.0000
  33 H            8.6131    -2.7553    -1.4478 H            1    LIG   0.0000
  34 H            8.0627    -3.8663    -2.5105 H            1    LIG   0.0000
  35 H            7.9714    -2.2762    -2.8709 H            1    LIG   0.0000
  36 H            7.2852    -2.4160     0.3878 H            1    LIG   0.0000
  37 H            5.1504    -2.2940     1.4661 H            1    LIG   0.0000
  38 H            2.2503     0.4984    -0.1449 H            1    LIG   0.0000
  39 H           -0.6966     0.0335     1.0030 H            1    LIG   0.0000
  40 H            2.5961    -0.9441     1.7129 H            1    LIG   0.0000
  41 H            4.9871    -0.9435     1.7150 H            1    LIG   0.0000
  42 H            6.1827     0.9999     1.0003 H            1    LIG   0.0000
  43 H            4.9871     2.9443     0.2869 H            1    LIG   0.0000
  44 H            2.8764     3.8582    -0.5528 H            1    LIG   0.0000
  45 H            1.4623     3.0918    -0.2712 H            1    LIG   0.0000
  46 H            1.6696     6.4086     0.3277 H            1    LIG   0.0000
  47 H            0.2554     5.6422     0.6093 H            1    LIG   0.0000
  48 H            0.9624     6.5133     1.7959 H            1    LIG   0.0000
  49 H           -1.3807    -1.5323     2.2583 H            1    LIG   0.0000
  50 H           -2.3968    -3.4304     3.2735 H            1    LIG   0.0000
  51 H           -1.2531    -5.5470     3.2233 H            1    LIG   0.0000
  52 H            0.8725    -5.6992     2.1565 H            1    LIG   0.0000
  53 H            3.3019    -3.2159    -2.1357 H            1    LIG   0.0000
  54 H            4.5114    -3.5828    -4.0607 H            1    LIG   0.0000
  55 H            5.8766    -2.6984    -4.2048 H            1    LIG   0.0000
  56 H            5.9680    -4.2886    -3.8446 H            1    LIG   0.0000
@<TRIPOS>BOND
   1        1        2 1
   2        2        3 ar
   3        3        4 ar
   4        4        5 ar
   5        5        6 1
   6        6        7 1
   7        7        8 1
   8        7        9 2
   9        9       10 1
  10       10       11 2
  11       11       12 1
  12       12       13 ar
  13       13       14 ar
  14       14       15 ar
  15       15       16 ar
  16       16       17 ar
  17       17       12 ar
  18       17       18 1
  19       18       19 1
  20       19       20 1
  21       19       21 2
  22        9       22 1
  23       22       23 ar
  24       23       24 ar
  25       24       25 ar
  26       25       26 ar
  27       26       27 ar
  28       27       22 ar
  29       27       28 1
  30       28        6 1
  31       28       29 2
  32        5       30 ar
  33       30       31 ar
  34       31        2 ar
  35       31       32 1
  36        1       33 1
  37        1       34 1
  38        1       35 1
  39        3       36 1
  40        4       37 1
  41        8       38 1
  42       10       39 1
  43       13       40 1
  44       14       41 1
  45       15       42 1
  46       16       43 1
  47       18       44 1
  48       18       45 1
  49       20       46 1
  50       20       47 1
  51       20       48 1
  52       23       49 1
  53       24       50 1
  54       25       51 1
  55       26       52 1
  56       30       53 1
  57       32       54 1
  58       32       55 1
  59       32       56 1

@<TRIPOS>MOLECULE

  56   59
SMALL
USER_CHARGES
@<TRIPOS>ATOM
   1 C1          -2.1186    -7.7820     4.2029 C.3          1    LIG   0.0000
   2 C2          -1.3039    -6.6866     3.5337 C.ar         1    LIG   0.0000
   3 C3          -1.9670    -5.7515     2.7465 C.ar         1    LIG   0.0000
   4 C4          -1.2619    -4.7321     2.1154 C.ar         1    LIG   0.0000
   5 C5           0.1169    -4.6625     2.2841 C.ar         1    LIG   0.0000
   6 N6           0.8306    -3.6381     1.6512 N.pl3        1    LIG   0.0000
   7 C7           0.2817    -2.3813     1.6141 C.2          1    LIG   0.0000
   8 O8          -0.9232    -2.1535     2.1806 O.3          1    LIG   0.0000
   9 C9           0.9375    -1.3413     1.0074 C.2          1    LIG   0.0000
  10 C10          0.3010    -0.0363     1.0033 C.2          1    LIG   0.0000
  11 N11          1.0000     1.0000     1.0000 N.2          1    LIG   0.0000
  12 C12          2.4004     1.0000     1.0000 C.ar         1    LIG   0.0000
  13 C13          3.0961    -0.1309     1.4150 C.ar         1    LIG   0.0000
  14 C14          4.4872    -0.1307     1.4158 C.ar         1    LIG   0.0000
  15 C15          5.1827     1.0000     1.0004 C.ar         1    LIG   0.0000
  16 C16          4.4871     2.1312     0.5850 C.ar         1    LIG   0.0000
  17 C17          3.0961     2.1310     0.5843 C.ar         1    LIG   0.0000
  18 C18          2.3360     3.3667     0.1300 C.3          1    LIG   0.0000
  19 S19          0.9023     2.8651    -0.8544 S.o          1    LIG   0.0000
  20 C20         -0.0027     4.3363    -1.3953 C.3          1    LIG   0.0000
  21 O21          1.3620     2.0986    -2.0465 O.2          1    LIG   0.0000
  22 C22          2.2074    -1.5769     0.4082 C.ar         1    LIG   0.0000
  23 C23          2.9165    -0.5554    -0.2208 C.ar         1    LIG   0.0000
  24 C24          4.1577    -0.7649    -0.8117 C.ar         1    LIG   0.0000
  25 C25          4.7147    -2.0388    -0.7746 C.ar         1    LIG   0.0000
  26 C26          4.0137    -3.0631    -0.1474 C.ar         1    LIG   0.0000
  27 C27          2.7692    -2.8519     0.4441 C.ar         1    LIG   0.0000
  28 C28          2.0524    -3.9016     1.0850 C.2          1    LIG   0.0000
  29 O29          2.4918    -5.0410     1.1493 O.2          1    LIG   0.0000
  30 C30          0.7924    -5.5920     3.0687 C.ar         1    LIG   0.0000
  31 C31          0.0765    -6.6070     3.6948 C.ar         1    LIG   0.0000
  32 C32          0.8329    -7.6126     4.5482 C.3          1    LIG   0.0000
  33 H           -3.0841    -7.6700     3.9680 H            1    LIG   0.0000
  34 H           -1.7998    -8.6753     3.8859 H            1    LIG   0.0000
  35 H           -2.0076    -7.7211     5.1948 H            1    LIG   0.0000
  36 H           -2.9587    -5.8125     2.6332 H            1    LIG   0.0000
  37 H           -1.7389    -4.0597     1.5494 H            1    LIG   0.0000
  38 H           -1.3233    -1.2374     2.1535 H            1    LIG   0.0000
  39 H           -0.6966     0.0335     1.0030 H            1    LIG   0.0000
  40 H            2.5961    -0.9441     1.7129 H            1    LIG   0.0000
  41 H            4.9871    -0.9435     1.7150 H            1    LIG   0.0000
  42 H            6.1827     0.9999     1.0003 H            1    LIG   0.0000
  43 H            4.9871     2.9443     0.2869 H            1    LIG   0.0000
  44 H            2.0274     3.8811     0.9301 H            1    LIG   0.0000
  45 H            2.9366     3.9422    -0.4250 H            1    LIG   0.0000
  46 H           -0.3113     4.8508    -0.5952 H            1    LIG   0.0000
  47 H            0.5979     4.9118    -1.9503 H            1    LIG   0.0000
  48 H           -0.7948     4.0592    -1.9392 H            1    LIG   0.0000
  49 H            2.5183     0.3615    -0.2483 H            1    LIG   0.0000
  50 H            4.6421    -0.0115    -1.2564 H            1    LIG   0.0000
  51 H            5.6058    -2.2155    -1.1926 H            1    LIG   0.0000
  52 H            4.4145    -3.9788    -0.1198 H            1    LIG   0.0000
  53 H            1.7841    -5.5308     3.1816 H            1    LIG   0.0000
  54 H            1.8077    -7.3899     4.5405 H            1    LIG   0.0000
  55 H            0.4903    -7.5775     5.4870 H            1    LIG   0.0000
  56 H            0.6981    -8.5319     4.1783 H            1    LIG   0.0000
@<TRIPOS>BOND
   1        1        2 1
   2        2        3 ar
   3        3        4 ar
   4        4        5 ar
   5        5        6 1
   6        6        7 1
   7        7        8 1
   8        7        9 2
   9        9       10 1
  10       10       11 2
  11       11       12 1
  12       12       13 ar
  13       13       14 ar
  14       14       15 ar
  15       15       16 ar
  16       16       17 ar
  17       17       12 ar
  18       17       18 1
  19       18       19 1
  20       19       20 1
  21       19       21 2
  22        9       22 1
  23       22       23 ar
  24       23       24 ar
  25       24       25 ar
  26       25       26 ar
  27       26       27 ar
  28       27       22 ar
  29       27       28 1
  30       28        6 1
  31       28       29 2
  32        5       30 ar
  33       30       31 ar
  34       31        2 ar
  35       31       32 1
  36        1       33 1
  37        1       34 1
  38        1       35 1
  39        3       36 1
  40        4       37 1
  41        8       38 1
  42       10       39 1
  43       13       40 1
  44       14       41 1
  45       15       42 1
  46       16       43 1
  47       18       44 1
  48       18       45 1
  49       20       46 1
  50       20       47 1
  51       20       48 1
  52       23       49 1
  53       24       50 1
  54       25       51 1
  55       26       52 1
  56       30       53 1
  57       32       54 1
  58       32       55 1
  59       32       56 1

@<TRIPOS>MOLECULE

  56   59
SMALL
USER_CHARGES
@<TRIPOS>ATOM
   1 C1           7.8699    -2.9320    -2.2251 C.3          1    LIG   0.0000
   2 C2           6.5305    -2.8822    -1.5077 C.ar         1    LIG   0.0000
   3 C3           5.5069    -2.1219    -2.0625 C.ar         1    LIG   0.0000
   4 C4           4.2650    -2.0476    -1.4404 C.ar         1    LIG   0.0000
   5 C5           4.0630    -2.7458    -0.2545 C.ar         1    LIG   0.0000
   6 N6           2.8148    -2.6743     0.3749 N.pl3        1    LIG   0.0000
   7 C7           2.1623    -1.4679     0.4043 C.2          1    LIG   0.0000
   8 O8           2.7260    -0.3810    -0.1663 O.3          1    LIG   0.0000
   9 C9           0.9375    -1.3413     1.0074 C.2          1    LIG   0.0000
  10 C10          0.3010    -0.0363     1.0033 C.2          1    LIG   0.0000
  11 N11          1.0000     1.0000     1.0000 N.2          1    LIG   0.0000
  12 C12          2.4004     1.0000     1.0000 C.ar         1    LIG   0.0000
  13 C13          3.0961    -0.1309     1.4150 C.ar         1    LIG   0.0000
  14 C14          4.4872    -0.1307     1.4158 C.ar         1    LIG   0.0000
  15 C15          5.1827     1.0000     1.0004 C.ar         1    LIG   0.0000
  16 C16          4.4871     2.1312     0.5850 C.ar         1    LIG   0.0000
  17 C17          3.0961     2.1310     0.5843 C.ar         1    LIG   0.0000
  18 C18          2.3360     3.3667     0.1300 C.3          1    LIG   0.0000
  19 S19          0.9023     2.8651    -0.8544 S.o          1    LIG   0.0000
  20 C20         -0.0027     4.3363    -1.3953 C.3          1    LIG   0.0000
  21 O21          1.3620     2.0986    -2.0465 O.2          1    LIG   0.0000
  22 C22          0.3398    -2.4840     1.6108 C.ar         1    LIG   0.0000
  23 C23         -0.9032    -2.4107     2.2364 C.ar         1    LIG   0.0000
  24 C24         -1.5037    -3.5147     2.8315 C.ar         1    LIG   0.0000
  25 C25         -0.8428    -4.7381     2.8022 C.ar         1    LIG   0.0000
  26 C26          0.3975    -4.8195     2.1784 C.ar         1    LIG   0.0000
  27 C27          0.9988    -3.7119     1.5827 C.ar         1    LIG   0.0000
  28 C28          2.2688    -3.7965     0.9455 C.2          1    LIG   0.0000
  29 O29          2.8963    -4.8445     0.8880 O.2          1    LIG   0.0000
  30 C30          5.0789    -3.5099     0.3112 C.ar         1    LIG   0.0000
  31 C31          6.3166    -3.5764    -0.3201 C.ar         1    LIG   0.0000
  32 C32          7.4136    -4.4169     0.3137 C.3          1    LIG   0.0000
  33 H            7.8255    -2.3730    -3.0531 H            1    LIG   0.0000
  34 H            8.5846    -2.5781    -1.6218 H            1    LIG   0.0000
  35 H            8.0806    -3.8778    -2.4724 H            1    LIG   0.0000
  36 H            5.6648    -1.6245    -2.9155 H            1    LIG   0.0000
  37 H            3.5290    -1.5008    -1.8394 H            1    LIG   0.0000
  38 H            2.2503     0.4984    -0.1449 H            1    LIG   0.0000
  39 H           -0.6966     0.0335     1.0030 H            1    LIG   0.0000
  40 H            2.5961    -0.9441     1.7129 H            1    LIG   0.0000
  41 H            4.9871    -0.9435     1.7150 H            1    LIG   0.0000
  42 H            6.1827     0.9999     1.0003 H            1    LIG   0.0000
  43 H            4.9871     2.9443     0.2869 H            1    LIG   0.0000
  44 H            2.0274     3.8811     0.9301 H            1    LIG   0.0000
  45 H            2.9366     3.9422    -0.4250 H            1    LIG   0.0000
  46 H           -0.3113     4.8508    -0.5952 H            1    LIG   0.0000
  47 H            0.5979     4.9118    -1.9503 H            1    LIG   0.0000
  48 H           -0.7948     4.0592    -1.9392 H            1    LIG   0.0000
  49 H           -1.3807    -1.5323     2.2583 H            1    LIG   0.0000
  50 H           -2.3968    -3.4304     3.2735 H            1    LIG   0.0000
  51 H           -1.2531    -5.5470     3.2233 H            1    LIG   0.0000
  52 H            0.8725    -5.6992     2.1565 H            1    LIG   0.0000
  53 H            4.9207    -4.0069     1.1643 H            1    LIG   0.0000
  54 H            7.0698    -4.8341     1.1550 H            1    LIG   0.0000
  55 H            7.6941    -5.1345    -0.3237 H            1    LIG   0.0000
  56 H            8.1984    -3.8349     0.5268 H            1    LIG   0.0000
@<TRIPOS>BOND
   1        1        2 1
   2        2        3 ar
   3        3        4 ar
   4        4        5 ar
   5        5        6 1
   6        6        7 1
   7        7        8 1
   8        7        9 2
   9        9       10 1
  10       10       11 2
  11       11       12 1
  12       12       13 ar
  13       13       14 ar
  14       14       15 ar
  15       15       16 ar
  16       16       17 ar
  17       17       12 ar
  18       17       18 1
  19       18       19 1
  20       19       20 1
  21       19       21 2
  22        9       22 1
  23       22       23 ar
  24       23       24 ar
  25       24       25 ar
  26       25       26 ar
  27       26       27 ar
  28       27       22 ar
  29       27       28 1
  30       28        6 1
  31       28       29 2
  32        5       30 ar
  33       30       31 ar
  34       31        2 ar
  35       31       32 1
  36        1       33 1
  37        1       34 1
  38        1       35 1
  39        3       36 1
  40        4       37 1
  41        8       38 1
  42       10       39 1
  43       13       40 1
  44       14       41 1
  45       15       42 1
  46       16       43 1
  47       18       44 1
  48       18       45 1
  49       20       46 1
  50       20       47 1
  51       20       48 1
  52       23       49 1
  53       24       50 1
  54       25       51 1
  55       26       52 1
  56       30       53 1
  57       32       54 1
  58       32       55 1
  59       32       56 1

@<TRIPOS>MOLECULE

  56   59
SMALL
USER_CHARGES
@<TRIPOS>ATOM
   1 C1           7.9078    -2.9978    -2.1424 C.3          1    LIG   0.0000
   2 C2           6.5372    -2.8924    -1.4933 C.ar         1    LIG   0.0000
   3 C3           6.3085    -3.5811    -0.3070 C.ar         1    LIG   0.0000
   4 C4           5.0697    -3.5132     0.3218 C.ar         1    LIG   0.0000
   5 C5           4.0630    -2.7458    -0.2545 C.ar         1    LIG   0.0000
   6 N6           2.8148    -2.6743     0.3749 N.pl3        1    LIG   0.0000
   7 C7           2.1623    -1.4679     0.4043 C.2          1    LIG   0.0000
   8 O8           2.7260    -0.3810    -0.1663 O.3          1    LIG   0.0000
   9 C9           0.9375    -1.3413     1.0074 C.2          1    LIG   0.0000
  10 C10          0.3010    -0.0363     1.0033 C.2          1    LIG   0.0000
  11 N11          1.0000     1.0000     1.0000 N.2          1    LIG   0.0000
  12 C12          2.4004     1.0000     1.0000 C.ar         1    LIG   0.0000
  13 C13          3.0961    -0.1309     1.4150 C.ar         1    LIG   0.0000
  14 C14          4.4872    -0.1307     1.4158 C.ar         1    LIG   0.0000
  15 C15          5.1827     1.0000     1.0004 C.ar         1    LIG   0.0000
  16 C16          4.4871     2.1312     0.5850 C.ar         1    LIG   0.0000
  17 C17          3.0961     2.1310     0.5843 C.ar         1    LIG   0.0000
  18 C18          2.3360     3.3667     0.1300 C.3          1    LIG   0.0000
  19 S19          0.9023     2.8651    -0.8544 S.o          1    LIG   0.0000
  20 C20         -0.0027     4.3363    -1.3953 C.3          1    LIG   0.0000
  21 O21          1.3620     2.0986    -2.0465 O.2          1    LIG   0.0000
  22 C22          0.3398    -2.4840     1.6108 C.ar         1    LIG   0.0000
  23 C23         -0.9032    -2.4107     2.2364 C.ar         1    LIG   0.0000
  24 C24         -1.5037    -3.5147     2.8315 C.ar         1    LIG   0.0000
  25 C25         -0.8428    -4.7381     2.8022 C.ar         1    LIG   0.0000
  26 C26          0.3975    -4.8195     2.1784 C.ar         1    LIG   0.0000
  27 C27          0.9988    -3.7119     1.5827 C.ar         1    LIG   0.0000
  28 C28          2.2688    -3.7965     0.9455 C.2          1    LIG   0.0000
  29 O29          2.8963    -4.8445     0.8880 O.2          1    LIG   0.0000
  30 C30          4.2787    -2.0523    -1.4413 C.ar         1    LIG   0.0000
  31 C31          5.5218    -2.1278    -2.0609 C.ar         1    LIG   0.0000
  32 C32          5.7376    -1.3625    -3.3568 C.3          1    LIG   0.0000
  33 H            8.4947    -3.5879    -1.5880 H            1    LIG   0.0000
  34 H            7.8137    -3.3873    -3.0586 H            1    LIG   0.0000
  35 H            8.3167    -2.0876    -2.2075 H            1    LIG   0.0000
  36 H            7.0406    -4.1294     0.0972 H            1    LIG   0.0000
  37 H            4.9054    -4.0085     1.1749 H            1    LIG   0.0000
  38 H            2.2503     0.4984    -0.1449 H            1    LIG   0.0000
  39 H           -0.6966     0.0335     1.0030 H            1    LIG   0.0000
  40 H            2.5961    -0.9441     1.7129 H            1    LIG   0.0000
  41 H            4.9871    -0.9435     1.7150 H            1    LIG   0.0000
  42 H            6.1827     0.9999     1.0003 H            1    LIG   0.0000
  43 H            4.9871     2.9443     0.2869 H            1    LIG   0.0000
  44 H            2.0274     3.8811     0.9301 H            1    LIG   0.0000
  45 H            2.9366     3.9422    -0.4250 H            1    LIG   0.0000
  46 H           -0.3113     4.8508    -0.5952 H            1    LIG   0.0000
  47 H            0.5979     4.9118    -1.9503 H            1    LIG   0.0000
  48 H           -0.7948     4.0592    -1.9392 H            1    LIG   0.0000
  49 H           -1.3807    -1.5323     2.2583 H            1    LIG   0.0000
  50 H           -2.3968    -3.4304     3.2735 H            1    LIG   0.0000
  51 H           -1.2531    -5.5470     3.2233 H            1    LIG   0.0000
  52 H            0.8725    -5.6992     2.1565 H            1    LIG   0.0000
  53 H            3.5463    -1.5042    -1.8453 H            1    LIG   0.0000
  54 H            4.8980    -0.8775    -3.6013 H            1    LIG   0.0000
  55 H            6.4798    -0.7035    -3.2351 H            1    LIG   0.0000
  56 H            5.9770    -2.0032    -4.0864 H            1    LIG   0.0000
@<TRIPOS>BOND
   1        1        2 1
   2        2        3 ar
   3        3        4 ar
   4        4        5 ar
   5        5        6 1
   6        6        7 1
   7        7        8 1
   8        7        9 2
   9        9       10 1
  10       10       11 2
  11       11       12 1
  12       12       13 ar
  13       13       14 ar
  14       14       15 ar
  15       15       16 ar
  16       16       17 ar
  17       17       12 ar
  18       17       18 1
  19       18       19 1
  20       19       20 1
  21       19       21 2
  22        9       22 1
  23       22       23 ar
  24       23       24 ar
  25       24       25 ar
  26       25       26 ar
  27       26       27 ar
  28       27       22 ar
  29       27       28 1
  30       28        6 1
  31       28       29 2
  32        5       30 ar
  33       30       31 ar
  34       31        2 ar
  35       31       32 1
  36        1       33 1
  37        1       34 1
  38        1       35 1
  39        3       36 1
  40        4       37 1
  41        8       38 1
  42       10       39 1
  43       13       40 1
  44       14       41 1
  45       15       42 1
  46       16       43 1
  47       18       44 1
  48       18       45 1
  49       20       46 1
  50       20       47 1
  51       20       48 1
  52       23       49 1
  53       24       50 1
  54       25       51 1
  55       26       52 1
  56       30       53 1
  57       32       54 1
  58       32       55 1
  59       32       56 1

@<TRIPOS>MOLECULE

  56   59
SMALL
USER_CHARGES
@<TRIPOS>ATOM
   1 C1          -2.0445    -7.7907     4.2722 C.3          1    LIG   0.0000
   2 C2          -1.2912    -6.6887     3.5448 C.ar         1    LIG   0.0000
   3 C3          -0.3942    -5.9084     4.2663 C.ar         1    LIG   0.0000
   4 C4           0.3169    -4.8891     3.6417 C.ar         1    LIG   0.0000
   5 C5           0.1169    -4.6625     2.2841 C.ar         1    LIG   0.0000
   6 N6           0.8306    -3.6381     1.6512 N.pl3        1    LIG   0.0000
   7 C7           0.2817    -2.3813     1.6141 C.2          1    LIG   0.0000
   8 O8          -0.9232    -2.1535     2.1806 O.3          1    LIG   0.0000
   9 C9           0.9375    -1.3413     1.0074 C.2          1    LIG   0.0000
  10 C10          0.3010    -0.0363     1.0033 C.2          1    LIG   0.0000
  11 N11          1.0000     1.0000     1.0000 N.2          1    LIG   0.0000
  12 C12          2.4004     1.0000     1.0000 C.ar         1    LIG   0.0000
  13 C13          3.0961    -0.1309     1.4150 C.ar         1    LIG   0.0000
  14 C14          4.4872    -0.1307     1.4158 C.ar         1    LIG   0.0000
  15 C15          5.1827     1.0000     1.0004 C.ar         1    LIG   0.0000
  16 C16          4.4871     2.1312     0.5850 C.ar         1    LIG   0.0000
  17 C17          3.0961     2.1310     0.5843 C.ar         1    LIG   0.0000
  18 C18          2.3360     3.3667     0.1300 C.3          1    LIG   0.0000
  19 S19          3.1665     4.0922    -1.3052 S.o          1    LIG   0.0000
  20 C20          4.9592     4.0131    -1.0687 C.3          1    LIG   0.0000
  21 O21          2.7933     3.3325    -2.5315 O.2          1    LIG   0.0000
  22 C22          2.2074    -1.5769     0.4082 C.ar         1    LIG   0.0000
  23 C23          2.9165    -0.5554    -0.2208 C.ar         1    LIG   0.0000
  24 C24          4.1577    -0.7649    -0.8117 C.ar         1    LIG   0.0000
  25 C25          4.7147    -2.0388    -0.7746 C.ar         1    LIG   0.0000
  26 C26          4.0137    -3.0631    -0.1474 C.ar         1    LIG   0.0000
  27 C27          2.7692    -2.8519     0.4441 C.ar         1    LIG   0.0000
  28 C28          2.0524    -3.9016     1.0850 C.2          1    LIG   0.0000
  29 O29          2.4918    -5.0410     1.1493 O.2          1    LIG   0.0000
  30 C30         -0.7778    -5.4358     1.5509 C.ar         1    LIG   0.0000
  31 C31         -1.4832    -6.4522     2.1865 C.ar         1    LIG   0.0000
  32 C32         -2.4559    -7.2861     1.3679 C.3          1    LIG   0.0000
  33 H           -1.7715    -7.8022     5.2341 H            1    LIG   0.0000
  34 H           -3.0279    -7.6215     4.2067 H            1    LIG   0.0000
  35 H           -1.8296    -8.6734     3.8541 H            1    LIG   0.0000
  36 H           -0.2594    -6.0815     5.2419 H            1    LIG   0.0000
  37 H            0.9618    -4.3281     4.1606 H            1    LIG   0.0000
  38 H           -1.3233    -1.2374     2.1535 H            1    LIG   0.0000
  39 H           -0.6966     0.0335     1.0030 H            1    LIG   0.0000
  40 H            2.5961    -0.9441     1.7129 H            1    LIG   0.0000
  41 H            4.9871    -0.9435     1.7150 H            1    LIG   0.0000
  42 H            6.1827     0.9999     1.0003 H            1    LIG   0.0000
  43 H            4.9871     2.9443     0.2869 H            1    LIG   0.0000
  44 H            1.4021     3.1106    -0.1195 H            1    LIG   0.0000
  45 H            2.3110     4.0348     0.8737 H            1    LIG   0.0000
  46 H            5.2097     4.5229    -0.2457 H            1    LIG   0.0000
  47 H            5.2404     3.0587    -0.9681 H            1    LIG   0.0000
  48 H            5.4181     4.4139    -1.8617 H            1    LIG   0.0000
  49 H            2.5183     0.3615    -0.2483 H            1    LIG   0.0000
  50 H            4.6421    -0.0115    -1.2564 H            1    LIG   0.0000
  51 H            5.6058    -2.2155    -1.1926 H            1    LIG   0.0000
  52 H            4.4145    -3.9788    -0.1198 H            1    LIG   0.0000
  53 H           -0.9124    -5.2622     0.5753 H            1    LIG   0.0000
  54 H           -2.4539    -6.9661     0.4204 H            1    LIG   0.0000
  55 H           -2.1775    -8.2462     1.3961 H            1    LIG   0.0000
  56 H           -3.3760    -7.1945     1.7487 H            1    LIG   0.0000
@<TRIPOS>BOND
   1        1        2 1
   2        2        3 ar
   3        3        4 ar
   4        4        5 ar
   5        5        6 1
   6        6        7 1
   7        7        8 1
   8        7        9 2
   9        9       10 1
  10       10       11 2
  11       11       12 1
  12       12       13 ar
  13       13       14 ar
  14       14       15 ar
  15       15       16 ar
  16       16       17 ar
  17       17       12 ar
  18       17       18 1
  19       18       19 1
  20       19       20 1
  21       19       21 2
  22        9       22 1
  23       22       23 ar
  24       23       24 ar
  25       24       25 ar
  26       25       26 ar
  27       26       27 ar
  28       27       22 ar
  29       27       28 1
  30       28        6 1
  31       28       29 2
  32        5       30 ar
  33       30       31 ar
  34       31        2 ar
  35       31       32 1
  36        1       33 1
  37        1       34 1
  38        1       35 1
  39        3       36 1
  40        4       37 1
  41        8       38 1
  42       10       39 1
  43       13       40 1
  44       14       41 1
  45       15       42 1
  46       16       43 1
  47       18       44 1
  48       18       45 1
  49       20       46 1
  50       20       47 1
  51       20       48 1
  52       23       49 1
  53       24       50 1
  54       25       51 1
  55       26       52 1
  56       30       53 1
  57       32       54 1
  58       32       55 1
  59       32       56 1

@<TRIPOS>MOLECULE

  56   59
SMALL
USER_CHARGES
@<TRIPOS>ATOM
   1 C1          -2.0729    -7.8307     4.1754 C.3          1    LIG   0.0000
   2 C2          -1.2967    -6.6949     3.5286 C.ar         1    LIG   0.0000
   3 C3          -0.9650    -6.7983     2.1821 C.ar         1    LIG   0.0000
   4 C4          -0.2556    -5.7831     1.5491 C.ar         1    LIG   0.0000
   5 C5           0.1169    -4.6625     2.2841 C.ar         1    LIG   0.0000
   6 N6           0.8306    -3.6381     1.6512 N.pl3        1    LIG   0.0000
   7 C7           0.2817    -2.3813     1.6141 C.2          1    LIG   0.0000
   8 O8          -0.9232    -2.1535     2.1806 O.3          1    LIG   0.0000
   9 C9           0.9375    -1.3413     1.0074 C.2          1    LIG   0.0000
  10 C10          0.3010    -0.0363     1.0033 C.2          1    LIG   0.0000
  11 N11          1.0000     1.0000     1.0000 N.2          1    LIG   0.0000
  12 C12          2.4004     1.0000     1.0000 C.ar         1    LIG   0.0000
  13 C13          3.0961    -0.1309     1.4150 C.ar         1    LIG   0.0000
  14 C14          4.4872    -0.1307     1.4158 C.ar         1    LIG   0.0000
  15 C15          5.1827     1.0000     1.0004 C.ar         1    LIG   0.0000
  16 C16          4.4871     2.1312     0.5850 C.ar         1    LIG   0.0000
  17 C17          3.0961     2.1310     0.5843 C.ar         1    LIG   0.0000
  18 C18          2.3360     3.3667     0.1300 C.3          1    LIG   0.0000
  19 S19          3.1665     4.0922    -1.3052 S.o          1    LIG   0.0000
  20 C20          4.9592     4.0131    -1.0687 C.3          1    LIG   0.0000
  21 O21          2.7933     3.3325    -2.5315 O.2          1    LIG   0.0000
  22 C22          2.2074    -1.5769     0.4082 C.ar         1    LIG   0.0000
  23 C23          2.9165    -0.5554    -0.2208 C.ar         1    LIG   0.0000
  24 C24          4.1577    -0.7649    -0.8117 C.ar         1    LIG   0.0000
  25 C25          4.7147    -2.0388    -0.7746 C.ar         1    LIG   0.0000
  26 C26          4.0137    -3.0631    -0.1474 C.ar         1    LIG   0.0000
  27 C27          2.7692    -2.8519     0.4441 C.ar         1    LIG   0.0000
  28 C28          2.0524    -3.9016     1.0850 C.2          1    LIG   0.0000
  29 O29          2.4918    -5.0410     1.1493 O.2          1    LIG   0.0000
  30 C30         -0.2085    -4.5468     3.6319 C.ar         1    LIG   0.0000
  31 C31         -0.9181    -5.5686     4.2540 C.ar         1    LIG   0.0000
  32 C32         -1.2642    -5.4231     5.7273 C.3          1    LIG   0.0000
  33 H           -2.2493    -8.5431     3.4961 H            1    LIG   0.0000
  34 H           -1.5380    -8.2135     4.9286 H            1    LIG   0.0000
  35 H           -2.9421    -7.4828     4.5269 H            1    LIG   0.0000
  36 H           -1.2386    -7.6092     1.6648 H            1    LIG   0.0000
  37 H           -0.0171    -5.8576     0.5809 H            1    LIG   0.0000
  38 H           -1.3233    -1.2374     2.1535 H            1    LIG   0.0000
  39 H           -0.6966     0.0335     1.0030 H            1    LIG   0.0000
  40 H            2.5961    -0.9441     1.7129 H            1    LIG   0.0000
  41 H            4.9871    -0.9435     1.7150 H            1    LIG   0.0000
  42 H            6.1827     0.9999     1.0003 H            1    LIG   0.0000
  43 H            4.9871     2.9443     0.2869 H            1    LIG   0.0000
  44 H            1.4021     3.1106    -0.1195 H            1    LIG   0.0000
  45 H            2.3110     4.0348     0.8737 H            1    LIG   0.0000
  46 H            5.2097     4.5229    -0.2457 H            1    LIG   0.0000
  47 H            5.2404     3.0587    -0.9681 H            1    LIG   0.0000
  48 H            5.4181     4.4139    -1.8617 H            1    LIG   0.0000
  49 H            2.5183     0.3615    -0.2483 H            1    LIG   0.0000
  50 H            4.6421    -0.0115    -1.2564 H            1    LIG   0.0000
  51 H            5.6058    -2.2155    -1.1926 H            1    LIG   0.0000
  52 H            4.4145    -3.9788    -0.1198 H            1    LIG   0.0000
  53 H            0.0656    -3.7359     4.1490 H            1    LIG   0.0000
  54 H           -0.9090    -4.5530     6.0688 H            1    LIG   0.0000
  55 H           -2.2576    -5.4450     5.8401 H            1    LIG   0.0000
  56 H           -0.8537    -6.1758     6.2421 H            1    LIG   0.0000
@<TRIPOS>BOND
   1        1        2 1
   2        2        3 ar
   3        3        4 ar
   4        4        5 ar
   5        5        6 1
   6        6        7 1
   7        7        8 1
   8        7        9 2
   9        9       10 1
  10       10       11 2
  11       11       12 1
  12       12       13 ar
  13       13       14 ar
  14       14       15 ar
  15       15       16 ar
  16       16       17 ar
  17       17       12 ar
  18       17       18 1
  19       18       19 1
  20       19       20 1
  21       19       21 2
  22        9       22 1
  23       22       23 ar
  24       23       24 ar
  25       24       25 ar
  26       25       26 ar
  27       26       27 ar
  28       27       22 ar
  29       27       28 1
  30       28        6 1
  31       28       29 2
  32        5       30 ar
  33       30       31 ar
  34       31        2 ar
  35       31       32 1
  36        1       33 1
  37        1       34 1
  38        1       35 1
  39        3       36 1
  40        4       37 1
  41        8       38 1
  42       10       39 1
  43       13       40 1
  44       14       41 1
  45       15       42 1
  46       16       43 1
  47       18       44 1
  48       18       45 1
  49       20       46 1
  50       20       47 1
  51       20       48 1
  52       23       49 1
  53       24       50 1
  54       25       51 1
  55       26       52 1
  56       30       53 1
  57       32       54 1
  58       32       55 1
  59       32       56 1

@<TRIPOS>MOLECULE

  56   59
SMALL
USER_CHARGES
@<TRIPOS>ATOM
   1 C1           7.9125    -2.9803    -2.1352 C.3          1    LIG   0.0000
   2 C2           6.5379    -2.8894    -1.4923 C.ar         1    LIG   0.0000
   3 C3           6.4119    -3.2077    -0.1444 C.ar         1    LIG   0.0000
   4 C4           5.1735    -3.1384     0.4851 C.ar         1    LIG   0.0000
   5 C5           4.0630    -2.7458    -0.2545 C.ar         1    LIG   0.0000
   6 N6           2.8148    -2.6743     0.3749 N.pl3        1    LIG   0.0000
   7 C7           2.1623    -1.4679     0.4043 C.2          1    LIG   0.0000
   8 O8           2.7260    -0.3810    -0.1663 O.3          1    LIG   0.0000
   9 C9           0.9375    -1.3413     1.0074 C.2          1    LIG   0.0000
  10 C10          0.3010    -0.0363     1.0033 C.2          1    LIG   0.0000
  11 N11          1.0000     1.0000     1.0000 N.2          1    LIG   0.0000
  12 C12          2.4004     1.0000     1.0000 C.ar         1    LIG   0.0000
  13 C13          3.0961    -0.1309     1.4150 C.ar         1    LIG   0.0000
  14 C14          4.4872    -0.1307     1.4158 C.ar         1    LIG   0.0000
  15 C15          5.1827     1.0000     1.0004 C.ar         1    LIG   0.0000
  16 C16          4.4871     2.1312     0.5850 C.ar         1    LIG   0.0000
  17 C17          3.0961     2.1310     0.5843 C.ar         1    LIG   0.0000
  18 C18          2.3360     3.3667     0.1300 C.3          1    LIG   0.0000
  19 S19          3.5121     4.6580    -0.3445 S.o          1    LIG   0.0000
  20 C20          4.5529     4.0582    -1.6985 C.3          1    LIG   0.0000
  21 O21          2.7671     5.8691    -0.7898 O.2          1    LIG   0.0000
  22 C22          0.3398    -2.4840     1.6108 C.ar         1    LIG   0.0000
  23 C23         -0.9032    -2.4107     2.2364 C.ar         1    LIG   0.0000
  24 C24         -1.5037    -3.5147     2.8315 C.ar         1    LIG   0.0000
  25 C25         -0.8428    -4.7381     2.8022 C.ar         1    LIG   0.0000
  26 C26          0.3975    -4.8195     2.1784 C.ar         1    LIG   0.0000
  27 C27          0.9988    -3.7119     1.5827 C.ar         1    LIG   0.0000
  28 C28          2.2688    -3.7965     0.9455 C.2          1    LIG   0.0000
  29 O29          2.8963    -4.8445     0.8880 O.2          1    LIG   0.0000
  30 C30          4.1755    -2.4250    -1.6037 C.ar         1    LIG   0.0000
  31 C31          5.4191    -2.4981    -2.2224 C.ar         1    LIG   0.0000
  32 C32          5.5212    -2.1433    -3.6973 C.3          1    LIG   0.0000
  33 H            8.5807    -3.2764    -1.4527 H            1    LIG   0.0000
  34 H            7.8866    -3.6413    -2.8851 H            1    LIG   0.0000
  35 H            8.1742    -2.0830    -2.4906 H            1    LIG   0.0000
  36 H            7.2180    -3.4886     0.3764 H            1    LIG   0.0000
  37 H            5.0830    -3.3674     1.4544 H            1    LIG   0.0000
  38 H            2.2503     0.4984    -0.1449 H            1    LIG   0.0000
  39 H           -0.6966     0.0335     1.0030 H            1    LIG   0.0000
  40 H            2.5961    -0.9441     1.7129 H            1    LIG   0.0000
  41 H            4.9871    -0.9435     1.7150 H            1    LIG   0.0000
  42 H            6.1827     0.9999     1.0003 H            1    LIG   0.0000
  43 H            4.9871     2.9443     0.2869 H            1    LIG   0.0000
  44 H            1.7611     3.1347    -0.6546 H            1    LIG   0.0000
  45 H            1.7610     3.6981     0.8781 H            1    LIG   0.0000
  46 H            5.0529     3.2454    -1.3997 H            1    LIG   0.0000
  47 H            3.9780     3.8262    -2.4832 H            1    LIG   0.0000
  48 H            5.2027     4.7716    -1.9607 H            1    LIG   0.0000
  49 H           -1.3807    -1.5323     2.2583 H            1    LIG   0.0000
  50 H           -2.3968    -3.4304     3.2735 H            1    LIG   0.0000
  51 H           -1.2531    -5.5470     3.2233 H            1    LIG   0.0000
  52 H            0.8725    -5.6992     2.1565 H            1    LIG   0.0000
  53 H            3.3691    -2.1444    -2.1242 H            1    LIG   0.0000
  54 H            4.6177    -1.8892    -4.0423 H            1    LIG   0.0000
  55 H            6.1503    -1.3745    -3.8124 H            1    LIG   0.0000
  56 H            5.8628    -2.9327    -4.2072 H            1    LIG   0.0000
@<TRIPOS>BOND
   1        1        2 1
   2        2        3 ar
   3        3        4 ar
   4        4        5 ar
   5        5        6 1
   6        6        7 1
   7        7        8 1
   8        7        9 2
   9        9       10 1
  10       10       11 2
  11       11       12 1
  12       12       13 ar
  13       13       14 ar
  14       14       15 ar
  15       15       16 ar
  16       16       17 ar
  17       17       12 ar
  18       17       18 1
  19       18       19 1
  20       19       20 1
  21       19       21 2
  22        9       22 1
  23       22       23 ar
  24       23       24 ar
  25       24       25 ar
  26       25       26 ar
  27       26       27 ar
  28       27       22 ar
  29       27       28 1
  30       28        6 1
  31       28       29 2
  32        5       30 ar
  33       30       31 ar
  34       31        2 ar
  35       31       32 1
  36        1       33 1
  37        1       34 1
  38        1       35 1
  39        3       36 1
  40        4       37 1
  41        8       38 1
  42       10       39 1
  43       13       40 1
  44       14       41 1
  45       15       42 1
  46       16       43 1
  47       18       44 1
  48       18       45 1
  49       20       46 1
  50       20       47 1
  51       20       48 1
  52       23       49 1
  53       24       50 1
  54       25       51 1
  55       26       52 1
  56       30       53 1
  57       32       54 1
  58       32       55 1
  59       32       56 1

