@<TRIPOS>MOLECULE
*****
 56 59 0 0 0
SMALL
USER_CHARGES

@<TRIPOS>ATOM
      1 C1          7.9078   -2.9978   -2.1424 C.3     1  LIG1        0.0000
      2 C2          6.5372   -2.8924   -1.4933 C.3     1  LIG1        0.0000
      3 C3          6.3085   -3.5811   -0.3070 C.3     1  LIG1        0.0000
      4 C4          5.0697   -3.5132    0.3218 C.3     1  LIG1        0.0000
      5 C5          4.0630   -2.7458   -0.2545 C.3     1  LIG1        0.0000
      6 N6          2.8148   -2.6743    0.3749 N.am    1  LIG1        0.0000
      7 C7          2.1623   -1.4679    0.4043 C.2     1  LIG1        0.0000
      8 O8          2.7260   -0.3810   -0.1663 O.2     1  LIG1        0.0000
      9 C9          0.9375   -1.3413    1.0074 C.2     1  LIG1        0.0000
     10 C10         0.3010   -0.0363    1.0033 C.2     1  LIG1        0.0000
     11 N11         1.0000    1.0000    1.0000 N.2     1  LIG1        0.0000
     12 C12         2.4004    1.0000    1.0000 C.3     1  LIG1        0.0000
     13 C13         3.0961   -0.1309    1.4150 C.3     1  LIG1        0.0000
     14 C14         4.4872   -0.1307    1.4158 C.3     1  LIG1        0.0000
     15 C15         5.1827    1.0000    1.0004 C.3     1  LIG1        0.0000
     16 C16         4.4871    2.1312    0.5850 C.3     1  LIG1        0.0000
     17 C17         3.0961    2.1310    0.5843 C.3     1  LIG1        0.0000
     18 C18         2.3360    3.3667    0.1300 C.3     1  LIG1        0.0000
     19 S19         0.9023    2.8651   -0.8544 S.O     1  LIG1        0.0000
     20 C20        -0.0027    4.3363   -1.3953 C.3     1  LIG1        0.0000
     21 O21         1.3620    2.0986   -2.0465 O.2     1  LIG1        0.0000
     22 C22         0.3398   -2.4840    1.6108 C.3     1  LIG1        0.0000
     23 C23        -0.9032   -2.4107    2.2364 C.3     1  LIG1        0.0000
     24 C24        -1.5037   -3.5147    2.8315 C.3     1  LIG1        0.0000
     25 C25        -0.8428   -4.7381    2.8022 C.3     1  LIG1        0.0000
     26 C26         0.3975   -4.8195    2.1784 C.3     1  LIG1        0.0000
     27 C27         0.9988   -3.7119    1.5827 C.3     1  LIG1        0.0000
     28 C28         2.2688   -3.7965    0.9455 C.2     1  LIG1        0.0000
     29 O29         2.8963   -4.8445    0.8880 O.2     1  LIG1        0.0000
     30 C30         4.2787   -2.0523   -1.4413 C.3     1  LIG1        0.0000
     31 C31         5.5218   -2.1278   -2.0609 C.3     1  LIG1        0.0000
     32 C32         5.7376   -1.3625   -3.3568 C.3     1  LIG1        0.0000
     33 H           8.4947   -3.5879   -1.5880 H       1  LIG1        0.0000
     34 H           7.8137   -3.3873   -3.0586 H       1  LIG1        0.0000
     35 H           8.3167   -2.0876   -2.2075 H       1  LIG1        0.0000
     36 H           7.0406   -4.1294    0.0972 H       1  LIG1        0.0000
     37 H           4.9054   -4.0085    1.1749 H       1  LIG1        0.0000
     38 H           2.2503    0.4984   -0.1449 H       1  LIG1        0.0000
     39 H          -0.6966    0.0335    1.0030 H       1  LIG1        0.0000
     40 H           2.5961   -0.9441    1.7129 H       1  LIG1        0.0000
     41 H           4.9871   -0.9435    1.7150 H       1  LIG1        0.0000
     42 H           6.1827    0.9999    1.0003 H       1  LIG1        0.0000
     43 H           4.9871    2.9443    0.2869 H       1  LIG1        0.0000
     44 H           2.0274    3.8811    0.9301 H       1  LIG1        0.0000
     45 H           2.9366    3.9422   -0.4250 H       1  LIG1        0.0000
     46 H          -0.3113    4.8508   -0.5952 H       1  LIG1        0.0000
     47 H           0.5979    4.9118   -1.9503 H       1  LIG1        0.0000
     48 H          -0.7948    4.0592   -1.9392 H       1  LIG1        0.0000
     49 H          -1.3807   -1.5323    2.2583 H       1  LIG1        0.0000
     50 H          -2.3968   -3.4304    3.2735 H       1  LIG1        0.0000
     51 H          -1.2531   -5.5470    3.2233 H       1  LIG1        0.0000
     52 H           0.8725   -5.6992    2.1565 H       1  LIG1        0.0000
     53 H           3.5463   -1.5042   -1.8453 H       1  LIG1        0.0000
     54 H           4.8980   -0.8775   -3.6013 H       1  LIG1        0.0000
     55 H           6.4798   -0.7035   -3.2351 H       1  LIG1        0.0000
     56 H           5.9770   -2.0032   -4.0864 H       1  LIG1        0.0000
@<TRIPOS>BOND
     1     1     2    1
     2     2     3   ar
     3     3     4   ar
     4     4     5   ar
     5     5     6    1
     6     6     7    1
     7     7     8    1
     8     7     9    2
     9     9    10    1
    10    10    11    2
    11    11    12    1
    12    12    13   ar
    13    13    14   ar
    14    14    15   ar
    15    15    16   ar
    16    16    17   ar
    17    17    12   ar
    18    17    18    1
    19    18    19    1
    20    19    20    1
    21    19    21    2
    22     9    22    1
    23    22    23   ar
    24    23    24   ar
    25    24    25   ar
    26    25    26   ar
    27    26    27   ar
    28    27    22   ar
    29    27    28    1
    30    28     6   am
    31    28    29    2
    32     5    30   ar
    33    30    31   ar
    34    31     2   ar
    35    31    32    1
    36     1    33    1
    37     1    34    1
    38     1    35    1
    39     3    36    1
    40     4    37    1
    41     8    38    1
    42    10    39    1
    43    13    40    1
    44    14    41    1
    45    15    42    1
    46    16    43    1
    47    18    44    1
    48    18    45    1
    49    20    46    1
    50    20    47    1
    51    20    48    1
    52    23    49    1
    53    24    50    1
    54    25    51    1
    55    26    52    1
    56    30    53    1
    57    32    54    1
    58    32    55    1
    59    32    56    1
