@<TRIPOS>MOLECULE
*****
 56 59 0 0 0
SMALL
USER_CHARGES

@<TRIPOS>ATOM
      1 C1         -2.0929   -7.8344   -2.1235 C.3     1  LIG1        0.0000
      2 C2         -1.2980   -6.7078   -1.4833 C.3     1  LIG1        0.0000
      3 C3         -1.4801   -6.4518   -0.1287 C.3     1  LIG1        0.0000
      4 C4         -0.7737   -5.4309    0.4987 C.3     1  LIG1        0.0000
      5 C5          0.1178   -4.6700   -0.2502 C.3     1  LIG1        0.0000
      6 N6          0.8311   -3.6418    0.3770 N.am    1  LIG1        0.0000
      7 C7          0.2821   -2.3849    0.4063 C.2     1  LIG1        0.0000
      8 O8         -0.9222   -2.1603   -0.1628 O.2     1  LIG1        0.0000
      9 C9          0.9375   -1.3413    1.0074 C.2     1  LIG1        0.0000
     10 C10         0.3010   -0.0363    1.0033 C.2     1  LIG1        0.0000
     11 N11         1.0000    1.0000    1.0000 N.2     1  LIG1        0.0000
     12 C12         2.4004    1.0000    1.0000 C.3     1  LIG1        0.0000
     13 C13         3.0961   -0.1331    0.5910 C.3     1  LIG1        0.0000
     14 C14         4.4872   -0.1335    0.5917 C.3     1  LIG1        0.0000
     15 C15         5.1827    0.9997    1.0003 C.3     1  LIG1        0.0000
     16 C16         4.4871    2.1333    1.4092 C.3     1  LIG1        0.0000
     17 C17         3.0961    2.1336    1.4086 C.3     1  LIG1        0.0000
     18 C18         2.3360    3.3722    1.8548 C.3     1  LIG1        0.0000
     19 S19         2.0342    3.2852    3.6374 S.O     1  LIG1        0.0000
     20 C20         1.1291    4.7599    4.1687 C.3     1  LIG1        0.0000
     21 O21         1.2289    2.0702    3.9461 O.2     1  LIG1        0.0000
     22 C22         2.2074   -1.5731    1.6079 C.3     1  LIG1        0.0000
     23 C23         2.9156   -0.5481    2.2322 C.3     1  LIG1        0.0000
     24 C24         4.1568   -0.7539    2.8244 C.3     1  LIG1        0.0000
     25 C25         4.7141   -2.0279    2.7949 C.3     1  LIG1        0.0000
     26 C26         4.0126   -3.0563    2.1748 C.3     1  LIG1        0.0000
     27 C27         2.7687   -2.8486    1.5811 C.3     1  LIG1        0.0000
     28 C28         2.0524   -3.9021    0.9459 C.2     1  LIG1        0.0000
     29 O29         2.4914   -5.0420    0.8893 O.2     1  LIG1        0.0000
     30 C30         0.3089   -4.9156   -1.6063 C.3     1  LIG1        0.0000
     31 C31        -0.4032   -5.9393   -2.2226 C.3     1  LIG1        0.0000
     32 C32        -0.1800   -6.1920   -3.7052 C.3     1  LIG1        0.0000
     33 H          -2.6761   -8.2644   -1.4342 H       1  LIG1        0.0000
     34 H          -2.6620   -7.4652   -2.8582 H       1  LIG1        0.0000
     35 H          -1.4637   -8.5148   -2.4991 H       1  LIG1        0.0000
     36 H          -2.1240   -7.0061    0.3987 H       1  LIG1        0.0000
     37 H          -0.9048   -5.2470    1.4728 H       1  LIG1        0.0000
     38 H          -1.3222   -1.2441   -0.1414 H       1  LIG1        0.0000
     39 H          -0.6966    0.0335    1.0030 H       1  LIG1        0.0000
     40 H           2.5961   -0.9475    0.2965 H       1  LIG1        0.0000
     41 H           4.9871   -0.9484    0.2984 H       1  LIG1        0.0000
     42 H           6.1827    0.9997    1.0002 H       1  LIG1        0.0000
     43 H           4.9871    2.9478    1.7035 H       1  LIG1        0.0000
     44 H           2.8764    4.1876    1.6477 H       1  LIG1        0.0000
     45 H           1.4623    3.4195    1.3707 H       1  LIG1        0.0000
     46 H           1.6696    5.5754    3.9615 H       1  LIG1        0.0000
     47 H           0.2554    4.8072    3.6846 H       1  LIG1        0.0000
     48 H           0.9624    4.7119    5.1535 H       1  LIG1        0.0000
     49 H           2.5168    0.3686    2.2552 H       1  LIG1        0.0000
     50 H           4.6412    0.0022    3.2645 H       1  LIG1        0.0000
     51 H           5.6056   -2.2018    3.2131 H       1  LIG1        0.0000
     52 H           4.4128   -3.9725    2.1543 H       1  LIG1        0.0000
     53 H           0.9528   -4.3610   -2.1333 H       1  LIG1        0.0000
     54 H           0.4943   -5.5423   -4.0562 H       1  LIG1        0.0000
     55 H           0.1555   -7.1247   -3.8375 H       1  LIG1        0.0000
     56 H          -1.0429   -6.0752   -4.1969 H       1  LIG1        0.0000
@<TRIPOS>BOND
     1     1     2    1
     2     2     3   ar
     3     3     4   ar
     4     4     5   ar
     5     5     6    1
     6     6     7    1
     7     7     8    1
     8     7     9    2
     9     9    10    1
    10    10    11    2
    11    11    12    1
    12    12    13   ar
    13    13    14   ar
    14    14    15   ar
    15    15    16   ar
    16    16    17   ar
    17    17    12   ar
    18    17    18    1
    19    18    19    1
    20    19    20    1
    21    19    21    2
    22     9    22    1
    23    22    23   ar
    24    23    24   ar
    25    24    25   ar
    26    25    26   ar
    27    26    27   ar
    28    27    22   ar
    29    27    28    1
    30    28     6   am
    31    28    29    2
    32     5    30   ar
    33    30    31   ar
    34    31     2   ar
    35    31    32    1
    36     1    33    1
    37     1    34    1
    38     1    35    1
    39     3    36    1
    40     4    37    1
    41     8    38    1
    42    10    39    1
    43    13    40    1
    44    14    41    1
    45    15    42    1
    46    16    43    1
    47    18    44    1
    48    18    45    1
    49    20    46    1
    50    20    47    1
    51    20    48    1
    52    23    49    1
    53    24    50    1
    54    25    51    1
    55    26    52    1
    56    30    53    1
    57    32    54    1
    58    32    55    1
    59    32    56    1
