@<TRIPOS>MOLECULE
*****
 56 59 0 0 0
SMALL
USER_CHARGES

@<TRIPOS>ATOM
      1 C1         -2.0968   -7.8141    4.1755 C.3     1  LIG1        0.0000
      2 C2         -1.3006   -6.6920    3.5289 C.3     1  LIG1        0.0000
      3 C3         -1.4815   -6.4445    2.1724 C.3     1  LIG1        0.0000
      4 C4         -0.7742   -5.4278    1.5393 C.3     1  LIG1        0.0000
      5 C5          0.1169   -4.6625    2.2841 C.3     1  LIG1        0.0000
      6 N6          0.8306   -3.6381    1.6512 N.am    1  LIG1        0.0000
      7 C7          0.2817   -2.3813    1.6141 C.2     1  LIG1        0.0000
      8 O8         -0.9232   -2.1535    2.1806 O.2     1  LIG1        0.0000
      9 C9          0.9375   -1.3413    1.0074 C.2     1  LIG1        0.0000
     10 C10         0.3010   -0.0363    1.0033 C.2     1  LIG1        0.0000
     11 N11         1.0000    1.0000    1.0000 N.2     1  LIG1        0.0000
     12 C12         2.4004    1.0000    1.0000 C.3     1  LIG1        0.0000
     13 C13         3.0961   -0.1309    1.4150 C.3     1  LIG1        0.0000
     14 C14         4.4872   -0.1307    1.4158 C.3     1  LIG1        0.0000
     15 C15         5.1827    1.0000    1.0004 C.3     1  LIG1        0.0000
     16 C16         4.4871    2.1312    0.5850 C.3     1  LIG1        0.0000
     17 C17         3.0961    2.1310    0.5843 C.3     1  LIG1        0.0000
     18 C18         2.3360    3.3667    0.1300 C.3     1  LIG1        0.0000
     19 S19         2.0342    4.4459    1.5514 S.O     1  LIG1        0.0000
     20 C20         1.1291    5.9171    1.0106 C.3     1  LIG1        0.0000
     21 O21         1.2289    3.7135    2.5689 O.2     1  LIG1        0.0000
     22 C22         2.2074   -1.5769    0.4082 C.3     1  LIG1        0.0000
     23 C23         2.9165   -0.5554   -0.2208 C.3     1  LIG1        0.0000
     24 C24         4.1577   -0.7649   -0.8117 C.3     1  LIG1        0.0000
     25 C25         4.7147   -2.0388   -0.7746 C.3     1  LIG1        0.0000
     26 C26         4.0137   -3.0631   -0.1474 C.3     1  LIG1        0.0000
     27 C27         2.7692   -2.8519    0.4441 C.3     1  LIG1        0.0000
     28 C28         2.0524   -3.9016    1.0850 C.2     1  LIG1        0.0000
     29 O29         2.4918   -5.0410    1.1493 O.2     1  LIG1        0.0000
     30 C30         0.3073   -4.9001    3.6417 C.3     1  LIG1        0.0000
     31 C31        -0.4056   -5.9196    4.2639 C.3     1  LIG1        0.0000
     32 C32        -0.1836   -6.1631    5.7481 C.3     1  LIG1        0.0000
     33 H          -2.6799   -8.2478    3.4886 H       1  LIG1        0.0000
     34 H          -1.4682   -8.4926    4.5556 H       1  LIG1        0.0000
     35 H          -2.6659   -7.4399    4.9077 H       1  LIG1        0.0000
     36 H          -2.1252   -7.0018    1.6481 H       1  LIG1        0.0000
     37 H          -0.9044   -5.2499    0.5639 H       1  LIG1        0.0000
     38 H          -1.3233   -1.2374    2.1535 H       1  LIG1        0.0000
     39 H          -0.6966    0.0335    1.0030 H       1  LIG1        0.0000
     40 H           2.5961   -0.9441    1.7129 H       1  LIG1        0.0000
     41 H           4.9871   -0.9435    1.7150 H       1  LIG1        0.0000
     42 H           6.1827    0.9999    1.0003 H       1  LIG1        0.0000
     43 H           4.9871    2.9443    0.2869 H       1  LIG1        0.0000
     44 H           2.8764    3.8582   -0.5528 H       1  LIG1        0.0000
     45 H           1.4623    3.0918   -0.2712 H       1  LIG1        0.0000
     46 H           1.6696    6.4086    0.3277 H       1  LIG1        0.0000
     47 H           0.2554    5.6422    0.6093 H       1  LIG1        0.0000
     48 H           0.9624    6.5133    1.7959 H       1  LIG1        0.0000
     49 H           2.5183    0.3615   -0.2483 H       1  LIG1        0.0000
     50 H           4.6421   -0.0115   -1.2564 H       1  LIG1        0.0000
     51 H           5.6058   -2.2155   -1.1926 H       1  LIG1        0.0000
     52 H           4.4145   -3.9788   -0.1198 H       1  LIG1        0.0000
     53 H           0.9513   -4.3426    4.1657 H       1  LIG1        0.0000
     54 H           0.4910   -5.5118    6.0956 H       1  LIG1        0.0000
     55 H          -1.0467   -6.0424    6.2385 H       1  LIG1        0.0000
     56 H           0.1509   -7.0953    5.8866 H       1  LIG1        0.0000
@<TRIPOS>BOND
     1     1     2    1
     2     2     3   ar
     3     3     4   ar
     4     4     5   ar
     5     5     6    1
     6     6     7    1
     7     7     8    1
     8     7     9    2
     9     9    10    1
    10    10    11    2
    11    11    12    1
    12    12    13   ar
    13    13    14   ar
    14    14    15   ar
    15    15    16   ar
    16    16    17   ar
    17    17    12   ar
    18    17    18    1
    19    18    19    1
    20    19    20    1
    21    19    21    2
    22     9    22    1
    23    22    23   ar
    24    23    24   ar
    25    24    25   ar
    26    25    26   ar
    27    26    27   ar
    28    27    22   ar
    29    27    28    1
    30    28     6   am
    31    28    29    2
    32     5    30   ar
    33    30    31   ar
    34    31     2   ar
    35    31    32    1
    36     1    33    1
    37     1    34    1
    38     1    35    1
    39     3    36    1
    40     4    37    1
    41     8    38    1
    42    10    39    1
    43    13    40    1
    44    14    41    1
    45    15    42    1
    46    16    43    1
    47    18    44    1
    48    18    45    1
    49    20    46    1
    50    20    47    1
    51    20    48    1
    52    23    49    1
    53    24    50    1
    54    25    51    1
    55    26    52    1
    56    30    53    1
    57    32    54    1
    58    32    55    1
    59    32    56    1
