@<TRIPOS>MOLECULE
*****
 12 13 0 0 0
SMALL
USER_CHARGES

@<TRIPOS>ATOM
      1 Br1        -1.3866   -1.1950   -0.0515 Br      1  LIG1        0.0000
      2 C2          0.1501    0.0255   -0.0186 C.2     1  LIG1        0.0000
      3 C3         -0.1595    1.3511    0.0240 C.2     1  LIG1        0.0000
      4 S4          1.3521    2.1356    0.0439 S.3     1  LIG1        0.0000
      5 C5          2.3177    0.7381   -0.0060 C.2     1  LIG1        0.0000
      6 C6          3.6265    0.3812   -0.0280 C.2     1  LIG1        0.0000
      7 N7          3.5921   -0.9767   -0.0637 N.2     1  LIG1        0.0000
      8 C8          2.3373   -1.3714   -0.0499 C.2     1  LIG1        0.0000
      9 N9          1.4869   -0.3061   -0.0289 N.pl3   1  LIG1        0.0000
     10 H          -1.0679    1.7689    0.0400 H       1  LIG1        0.0000
     11 H           4.4289    0.9779   -0.0199 H       1  LIG1        0.0000
     12 H           2.0454   -2.3279   -0.0542 H       1  LIG1        0.0000
@<TRIPOS>BOND
     1     1     2    1
     2     2     3    2
     3     3     4    1
     4     4     5    1
     5     5     6    2
     6     6     7    1
     7     7     8    2
     8     8     9    1
     9     9     2    1
    10     9     5    1
    11     3    10    1
    12     6    11    1
    13     8    12    1
