@<TRIPOS>MOLECULE

  22   22
SMALL
USER_CHARGES
@<TRIPOS>ATOM
   1 C1           0.8139    -0.3549     1.6634 C.3          1    LIG   0.0000
   2 C2           1.0000     1.0000     1.0000 C.3          1    LIG   0.0000
   3 N3           1.8488     1.8488     1.8488 N.pl3        1    LIG   0.0000
   4 C4           1.4233     2.6910     2.8321 C.2          1    LIG   0.0000
   5 C5          -0.0274     2.9085     3.2340 C.1          1    LIG   0.0000
   6 N6          -1.1147     3.0716     3.5353 N.1          1    LIG   0.0000
   7 N7           2.4478     3.2913     3.3904 N.2          1    LIG   0.0000
   8 C8           3.5722     2.8413     2.7646 C.2          1    LIG   0.0000
   9 C9           4.9954     3.2678     3.0873 C.3          1    LIG   0.0000
  10 C10          3.2038     1.9493     1.8081 C.2          1    LIG   0.0000
  11 C11          4.1333     1.1958     0.8705 C.3          1    LIG   0.0000
  12 H            0.2365    -0.9322     1.0861 H            1    LIG   0.0000
  13 H            1.7052    -0.7913     1.7859 H            1    LIG   0.0000
  14 H            0.3774    -0.2324     2.5548 H            1    LIG   0.0000
  15 H            1.4365     0.8775     0.1086 H            1    LIG   0.0000
  16 H            0.1086     1.4365     0.8775 H            1    LIG   0.0000
  17 H            5.6320     2.7892     2.4826 H            1    LIG   0.0000
  18 H            5.0862     4.2546     2.9531 H            1    LIG   0.0000
  19 H            5.2041     3.0401     4.0384 H            1    LIG   0.0000
  20 H            5.0798     1.4596     1.0563 H            1    LIG   0.0000
  21 H            4.0269     0.2120     1.0153 H            1    LIG   0.0000
  22 H            3.9045     1.4199    -0.0768 H            1    LIG   0.0000
@<TRIPOS>BOND
   1        1        2 1
   2        2        3 1
   3        3        4 1
   4        4        5 1
   5        5        6 3
   6        4        7 2
   7        7        8 1
   8        8        9 1
   9        8       10 2
  10       10        3 1
  11       10       11 1
  12        1       12 1
  13        1       13 1
  14        1       14 1
  15        2       15 1
  16        2       16 1
  17        9       17 1
  18        9       18 1
  19        9       19 1
  20       11       20 1
  21       11       21 1
  22       11       22 1

@<TRIPOS>MOLECULE

  22   22
SMALL
USER_CHARGES
@<TRIPOS>ATOM
   1 C1           0.8139    -0.3549     1.6634 C.3          1    LIG   0.0000
   2 C2           1.0000     1.0000     1.0000 C.3          1    LIG   0.0000
   3 N3           1.8488     1.8488     1.8488 N.pl3        1    LIG   0.0000
   4 C4           1.5049     2.3902     3.0513 C.2          1    LIG   0.0000
   5 C5           0.1615     2.2121     3.7417 C.1          1    LIG   0.0000
   6 N6          -0.8455     2.0786     4.2592 N.1          1    LIG   0.0000
   7 N7           2.5033     3.0902     3.5361 N.2          1    LIG   0.0000
   8 C8           3.5261     3.0139     2.6381 C.2          1    LIG   0.0000
   9 C9           4.8867     3.6757     2.7882 C.3          1    LIG   0.0000
  10 C10          3.1226     2.2473     1.5913 C.2          1    LIG   0.0000
  11 C11          3.9444     1.8926     0.3626 C.3          1    LIG   0.0000
  12 H            0.2365    -0.9322     1.0861 H            1    LIG   0.0000
  13 H            1.7052    -0.7913     1.7859 H            1    LIG   0.0000
  14 H            0.3774    -0.2324     2.5548 H            1    LIG   0.0000
  15 H            1.4365     0.8775     0.1086 H            1    LIG   0.0000
  16 H            0.1086     1.4365     0.8775 H            1    LIG   0.0000
  17 H            5.4510     3.4621     1.9907 H            1    LIG   0.0000
  18 H            4.7696     4.6663     2.8580 H            1    LIG   0.0000
  19 H            5.3343     3.3339     3.6145 H            1    LIG   0.0000
  20 H            4.8465     2.3188     0.4304 H            1    LIG   0.0000
  21 H            4.0483     0.8996     0.3064 H            1    LIG   0.0000
  22 H            3.4790     2.2260    -0.4573 H            1    LIG   0.0000
@<TRIPOS>BOND
   1        1        2 1
   2        2        3 1
   3        3        4 1
   4        4        5 1
   5        5        6 3
   6        4        7 2
   7        7        8 1
   8        8        9 1
   9        8       10 2
  10       10        3 1
  11       10       11 1
  12        1       12 1
  13        1       13 1
  14        1       14 1
  15        2       15 1
  16        2       16 1
  17        9       17 1
  18        9       18 1
  19        9       19 1
  20       11       20 1
  21       11       21 1
  22       11       22 1

@<TRIPOS>MOLECULE

  22   22
SMALL
USER_CHARGES
@<TRIPOS>ATOM
   1 C1           0.8139    -0.3549     1.6634 C.3          1    LIG   0.0000
   2 C2           1.0000     1.0000     1.0000 C.3          1    LIG   0.0000
   3 N3           1.8488     1.8488     1.8488 N.pl3        1    LIG   0.0000
   4 C4           1.4492     2.9465     2.5506 C.2          1    LIG   0.0000
   5 C5           0.0329     3.5001     2.5822 C.1          1    LIG   0.0000
   6 N6          -1.0286     3.9150     2.6059 N.1          1    LIG   0.0000
   7 N7           2.4641     3.4625     3.2029 N.2          1    LIG   0.0000
   8 C8           3.5564     2.6949     2.9267 C.2          1    LIG   0.0000
   9 C9           4.9579     2.9221     3.4704 C.3          1    LIG   0.0000
  10 C10          3.1784     1.6961     2.0867 C.2          1    LIG   0.0000
  11 C11          4.0729     0.6040     1.5227 C.3          1    LIG   0.0000
  12 H            0.2365    -0.9322     1.0861 H            1    LIG   0.0000
  13 H            1.7052    -0.7913     1.7859 H            1    LIG   0.0000
  14 H            0.3774    -0.2324     2.5548 H            1    LIG   0.0000
  15 H            1.4365     0.8775     0.1086 H            1    LIG   0.0000
  16 H            0.1086     1.4365     0.8775 H            1    LIG   0.0000
  17 H            5.5721     2.2183     3.1134 H            1    LIG   0.0000
  18 H            5.2836     3.8239     3.1864 H            1    LIG   0.0000
  19 H            4.9400     2.8735     4.4691 H            1    LIG   0.0000
  20 H            5.0058     0.7298     1.8601 H            1    LIG   0.0000
  21 H            3.7311    -0.2898     1.8130 H            1    LIG   0.0000
  22 H            4.0701     0.6536     0.5239 H            1    LIG   0.0000
@<TRIPOS>BOND
   1        1        2 1
   2        2        3 1
   3        3        4 1
   4        4        5 1
   5        5        6 3
   6        4        7 2
   7        7        8 1
   8        8        9 1
   9        8       10 2
  10       10        3 1
  11       10       11 1
  12        1       12 1
  13        1       13 1
  14        1       14 1
  15        2       15 1
  16        2       16 1
  17        9       17 1
  18        9       18 1
  19        9       19 1
  20       11       20 1
  21       11       21 1
  22       11       22 1

@<TRIPOS>MOLECULE

  22   22
SMALL
USER_CHARGES
@<TRIPOS>ATOM
   1 C1           0.8139    -0.3549     1.6634 C.3          1    LIG   0.0000
   2 C2           1.0000     1.0000     1.0000 C.3          1    LIG   0.0000
   3 N3           1.8488     1.8488     1.8488 N.pl3        1    LIG   0.0000
   4 C4           1.6313     2.1565     3.1585 C.2          1    LIG   0.0000
   5 C5           0.4540     1.6711     3.9901 C.1          1    LIG   0.0000
   6 N6          -0.4284     1.3073     4.6134 N.1          1    LIG   0.0000
   7 N7           2.5883     2.9343     3.6070 N.2          1    LIG   0.0000
   8 C8           3.4541     3.1481     2.5759 C.2          1    LIG   0.0000
   9 C9           4.7164     3.9929     2.6411 C.3          1    LIG   0.0000
  10 C10          2.9973     2.4786     1.4854 C.2          1    LIG   0.0000
  11 C11          3.6518     2.4337     0.1140 C.3          1    LIG   0.0000
  12 H            0.2365    -0.9322     1.0861 H            1    LIG   0.0000
  13 H            1.7052    -0.7913     1.7859 H            1    LIG   0.0000
  14 H            0.3774    -0.2324     2.5548 H            1    LIG   0.0000
  15 H            1.4365     0.8775     0.1086 H            1    LIG   0.0000
  16 H            0.1086     1.4365     0.8775 H            1    LIG   0.0000
  17 H            5.1692     3.9850     1.7495 H            1    LIG   0.0000
  18 H            4.4765     4.9326     2.8848 H            1    LIG   0.0000
  19 H            5.3339     3.6167     3.3319 H            1    LIG   0.0000
  20 H            4.4854     2.9859     0.1243 H            1    LIG   0.0000
  21 H            3.8814     1.4877    -0.1149 H            1    LIG   0.0000
  22 H            3.0191     2.7979    -0.5694 H            1    LIG   0.0000
@<TRIPOS>BOND
   1        1        2 1
   2        2        3 1
   3        3        4 1
   4        4        5 1
   5        5        6 3
   6        4        7 2
   7        7        8 1
   8        8        9 1
   9        8       10 2
  10       10        3 1
  11       10       11 1
  12        1       12 1
  13        1       13 1
  14        1       14 1
  15        2       15 1
  16        2       16 1
  17        9       17 1
  18        9       18 1
  19        9       19 1
  20       11       20 1
  21       11       21 1
  22       11       22 1

@<TRIPOS>MOLECULE

  22   22
SMALL
USER_CHARGES
@<TRIPOS>ATOM
   1 C1           0.8139    -0.3549     1.6634 C.3          1    LIG   0.0000
   2 C2           1.0000     1.0000     1.0000 C.3          1    LIG   0.0000
   3 N3           1.8488     1.8488     1.8488 N.pl3        1    LIG   0.0000
   4 C4           1.5379     3.0896     2.3188 C.2          1    LIG   0.0000
   5 C5           0.2384     3.8312     2.0456 C.1          1    LIG   0.0000
   6 N6          -0.7356     4.3871     1.8408 N.1          1    LIG   0.0000
   7 N7           2.5227     3.5586     3.0483 N.2          1    LIG   0.0000
   8 C8           3.5048     2.6133     3.0600 C.2          1    LIG   0.0000
   9 C9           4.8360     2.7292     3.7853 C.3          1    LIG   0.0000
  10 C10          3.0908     1.5543     2.3162 C.2          1    LIG   0.0000
  11 C11          3.8672     0.2727     2.0596 C.3          1    LIG   0.0000
  12 H            0.2365    -0.9322     1.0861 H            1    LIG   0.0000
  13 H            1.7052    -0.7913     1.7859 H            1    LIG   0.0000
  14 H            0.3774    -0.2324     2.5548 H            1    LIG   0.0000
  15 H            1.4365     0.8775     0.1086 H            1    LIG   0.0000
  16 H            0.1086     1.4365     0.8775 H            1    LIG   0.0000
  17 H            5.3723     1.8992     3.6323 H            1    LIG   0.0000
  18 H            5.3384     3.5199     3.4356 H            1    LIG   0.0000
  19 H            4.6727     2.8447     4.7651 H            1    LIG   0.0000
  20 H            4.7526     0.3211     2.5220 H            1    LIG   0.0000
  21 H            3.3494    -0.5069     2.4117 H            1    LIG   0.0000
  22 H            4.0104     0.1610     1.0762 H            1    LIG   0.0000
@<TRIPOS>BOND
   1        1        2 1
   2        2        3 1
   3        3        4 1
   4        4        5 1
   5        5        6 3
   6        4        7 2
   7        7        8 1
   8        8        9 1
   9        8       10 2
  10       10        3 1
  11       10       11 1
  12        1       12 1
  13        1       13 1
  14        1       14 1
  15        2       15 1
  16        2       16 1
  17        9       17 1
  18        9       18 1
  19        9       19 1
  20       11       20 1
  21       11       21 1
  22       11       22 1

@<TRIPOS>MOLECULE

  22   22
SMALL
USER_CHARGES
@<TRIPOS>ATOM
   1 C1           0.8139    -0.3549     1.6634 C.3          1    LIG   0.0000
   2 C2           1.0000     1.0000     1.0000 C.3          1    LIG   0.0000
   3 N3           1.8488     1.8488     1.8488 N.pl3        1    LIG   0.0000
   4 C4           3.2076     1.9399     1.7988 C.2          1    LIG   0.0000
   5 C5           4.1042     1.1683     0.8428 C.1          1    LIG   0.0000
   6 N6           4.7762     0.5899     0.1262 N.1          1    LIG   0.0000
   7 N7           3.6386     2.7950     2.6960 N.2          1    LIG   0.0000
   8 C8           2.5465     3.2774     3.3541 C.2          1    LIG   0.0000
   9 C9           2.5716     4.2992     4.4797 C.3          1    LIG   0.0000
  10 C10          1.4370     2.6915     2.8327 C.2          1    LIG   0.0000
  11 C11         -0.0002     2.9373     3.2625 C.3          1    LIG   0.0000
  12 H            0.2365    -0.9322     1.0861 H            1    LIG   0.0000
  13 H            1.7052    -0.7913     1.7859 H            1    LIG   0.0000
  14 H            0.3774    -0.2324     2.5548 H            1    LIG   0.0000
  15 H            1.4365     0.8775     0.1086 H            1    LIG   0.0000
  16 H            0.1086     1.4365     0.8775 H            1    LIG   0.0000
  17 H            1.6372     4.4800     4.7866 H            1    LIG   0.0000
  18 H            3.1098     3.9413     5.2428 H            1    LIG   0.0000
  19 H            2.9843     5.1483     4.1500 H            1    LIG   0.0000
  20 H           -0.0160     3.6042     4.0075 H            1    LIG   0.0000
  21 H           -0.5241     3.2908     2.4875 H            1    LIG   0.0000
  22 H           -0.4061     2.0785     3.5752 H            1    LIG   0.0000
@<TRIPOS>BOND
   1        1        2 1
   2        2        3 1
   3        3        4 1
   4        4        5 1
   5        5        6 3
   6        4        7 2
   7        7        8 1
   8        8        9 1
   9        8       10 2
  10       10        3 1
  11       10       11 1
  12        1       12 1
  13        1       13 1
  14        1       14 1
  15        2       15 1
  16        2       16 1
  17        9       17 1
  18        9       18 1
  19        9       19 1
  20       11       20 1
  21       11       21 1
  22       11       22 1

@<TRIPOS>MOLECULE

  22   22
SMALL
USER_CHARGES
@<TRIPOS>ATOM
   1 C1           0.8139    -0.3549     1.6634 C.3          1    LIG   0.0000
   2 C2           1.0000     1.0000     1.0000 C.3          1    LIG   0.0000
   3 N3           1.8488     1.8488     1.8488 N.pl3        1    LIG   0.0000
   4 C4           3.1260     2.2407     1.5796 C.2          1    LIG   0.0000
   5 C5           3.9153     1.8648     0.3351 C.1          1    LIG   0.0000
   6 N6           4.5070     1.5830    -0.5977 N.1          1    LIG   0.0000
   7 N7           3.5831     2.9961     2.5503 N.2          1    LIG   0.0000
   8 C8           2.5926     3.1048     3.4807 C.2          1    LIG   0.0000
   9 C9           2.6803     3.8913     4.7788 C.3          1    LIG   0.0000
  10 C10          1.5182     2.3935     3.0495 C.2          1    LIG   0.0000
  11 C11          0.1886     2.2405     3.7704 C.3          1    LIG   0.0000
  12 H            0.2365    -0.9322     1.0861 H            1    LIG   0.0000
  13 H            1.7052    -0.7913     1.7859 H            1    LIG   0.0000
  14 H            0.3774    -0.2324     2.5548 H            1    LIG   0.0000
  15 H            1.4365     0.8775     0.1086 H            1    LIG   0.0000
  16 H            0.1086     1.4365     0.8775 H            1    LIG   0.0000
  17 H            1.8182     3.8071     5.2785 H            1    LIG   0.0000
  18 H            3.4263     3.5296     5.3379 H            1    LIG   0.0000
  19 H            2.8541     4.8545     4.5739 H            1    LIG   0.0000
  20 H            0.2173     2.7450     4.6334 H            1    LIG   0.0000
  21 H           -0.5455     2.6033     3.1965 H            1    LIG   0.0000
  22 H            0.0194     1.2725     3.9558 H            1    LIG   0.0000
@<TRIPOS>BOND
   1        1        2 1
   2        2        3 1
   3        3        4 1
   4        4        5 1
   5        5        6 3
   6        4        7 2
   7        7        8 1
   8        8        9 1
   9        8       10 2
  10       10        3 1
  11       10       11 1
  12        1       12 1
  13        1       13 1
  14        1       14 1
  15        2       15 1
  16        2       16 1
  17        9       17 1
  18        9       18 1
  19        9       19 1
  20       11       20 1
  21       11       21 1
  22       11       22 1

@<TRIPOS>MOLECULE

  22   22
SMALL
USER_CHARGES
@<TRIPOS>ATOM
   1 C1           0.8139    -0.3549     1.6634 C.3          1    LIG   0.0000
   2 C2           1.0000     1.0000     1.0000 C.3          1    LIG   0.0000
   3 N3           1.8488     1.8488     1.8488 N.pl3        1    LIG   0.0000
   4 C4           3.1817     1.6844     2.0803 C.2          1    LIG   0.0000
   5 C5           4.0439     0.5767     1.4946 C.1          1    LIG   0.0000
   6 N6           4.6901    -0.2535     1.0556 N.1          1    LIG   0.0000
   7 N7           3.6222     2.6239     2.8835 N.2          1    LIG   0.0000
   8 C8           2.5623     3.4238     3.1920 C.2          1    LIG   0.0000
   9 C9           2.6090     4.6449     4.0966 C.3          1    LIG   0.0000
  10 C10          1.4624     2.9447     2.5541 C.2          1    LIG   0.0000
  11 C11          0.0602     3.5290     2.6103 C.3          1    LIG   0.0000
  12 H            0.2365    -0.9322     1.0861 H            1    LIG   0.0000
  13 H            1.7052    -0.7913     1.7859 H            1    LIG   0.0000
  14 H            0.3774    -0.2324     2.5548 H            1    LIG   0.0000
  15 H            1.4365     0.8775     0.1086 H            1    LIG   0.0000
  16 H            0.1086     1.4365     0.8775 H            1    LIG   0.0000
  17 H            1.6971     5.0509     4.1558 H            1    LIG   0.0000
  18 H            2.9124     4.3720     5.0095 H            1    LIG   0.0000
  19 H            3.2484     5.3149     3.7193 H            1    LIG   0.0000
  20 H            0.0580     4.3340     3.2037 H            1    LIG   0.0000
  21 H           -0.2283     3.7927     1.6898 H            1    LIG   0.0000
  22 H           -0.5717     2.8448     2.9745 H            1    LIG   0.0000
@<TRIPOS>BOND
   1        1        2 1
   2        2        3 1
   3        3        4 1
   4        4        5 1
   5        5        6 3
   6        4        7 2
   7        7        8 1
   8        8        9 1
   9        8       10 2
  10       10        3 1
  11       10       11 1
  12        1       12 1
  13        1       13 1
  14        1       14 1
  15        2       15 1
  16        2       16 1
  17        9       17 1
  18        9       18 1
  19        9       19 1
  20       11       20 1
  21       11       21 1
  22       11       22 1

@<TRIPOS>MOLECULE

  22   22
SMALL
USER_CHARGES
@<TRIPOS>ATOM
   1 C1           0.8139    -0.3549     1.6634 C.3          1    LIG   0.0000
   2 C2           1.0000     1.0000     1.0000 C.3          1    LIG   0.0000
   3 N3           1.8488     1.8488     1.8488 N.pl3        1    LIG   0.0000
   4 C4           2.9996     2.4743     1.4724 C.2          1    LIG   0.0000
   5 C5           3.6228     2.4057     0.0868 C.1          1    LIG   0.0000
   6 N6           4.0899     2.3542    -0.9519 N.1          1    LIG   0.0000
   7 N7           3.4981     3.1521     2.4794 N.2          1    LIG   0.0000
   8 C8           2.6647     2.9706     3.5428 C.2          1    LIG   0.0000
   9 C9           2.8505     3.5741     4.9259 C.3          1    LIG   0.0000
  10 C10          1.6436     2.1622     3.1555 C.2          1    LIG   0.0000
  11 C11          0.4812     1.6993     4.0190 C.3          1    LIG   0.0000
  12 H            0.2365    -0.9322     1.0861 H            1    LIG   0.0000
  13 H            1.7052    -0.7913     1.7859 H            1    LIG   0.0000
  14 H            0.3774    -0.2324     2.5548 H            1    LIG   0.0000
  15 H            1.4365     0.8775     0.1086 H            1    LIG   0.0000
  16 H            0.1086     1.4365     0.8775 H            1    LIG   0.0000
  17 H            2.1000     3.2842     5.5197 H            1    LIG   0.0000
  18 H            3.7194     3.2633     5.3111 H            1    LIG   0.0000
  19 H            2.8545     4.5716     4.8565 H            1    LIG   0.0000
  20 H            0.5784     2.0779     4.9395 H            1    LIG   0.0000
  21 H           -0.3786     2.0151     3.6177 H            1    LIG   0.0000
  22 H            0.4793     0.7005     4.0678 H            1    LIG   0.0000
@<TRIPOS>BOND
   1        1        2 1
   2        2        3 1
   3        3        4 1
   4        4        5 1
   5        5        6 3
   6        4        7 2
   7        7        8 1
   8        8        9 1
   9        8       10 2
  10       10        3 1
  11       10       11 1
  12        1       12 1
  13        1       13 1
  14        1       14 1
  15        2       15 1
  16        2       16 1
  17        9       17 1
  18        9       18 1
  19        9       19 1
  20       11       20 1
  21       11       21 1
  22       11       22 1

@<TRIPOS>MOLECULE

  22   22
SMALL
USER_CHARGES
@<TRIPOS>ATOM
   1 C1           0.8139    -0.3549     1.6634 C.3          1    LIG   0.0000
   2 C2           1.0000     1.0000     1.0000 C.3          1    LIG   0.0000
   3 N3           1.8488     1.8488     1.8488 N.pl3        1    LIG   0.0000
   4 C4           3.0930     1.5413     2.3121 C.2          1    LIG   0.0000
   5 C5           3.8384     0.2456     2.0312 C.1          1    LIG   0.0000
   6 N6           4.3971    -0.7256     1.8207 N.1          1    LIG   0.0000
   7 N7           3.5637     2.5278     3.0381 N.2          1    LIG   0.0000
   8 C8           2.6139     3.5054     3.0587 C.2          1    LIG   0.0000
   9 C9           2.7310     4.8378     3.7817 C.3          1    LIG   0.0000
  10 C10          1.5500     3.0866     2.3246 C.2          1    LIG   0.0000
  11 C11          0.2658     3.8603     2.0734 C.3          1    LIG   0.0000
  12 H            0.2365    -0.9322     1.0861 H            1    LIG   0.0000
  13 H            1.7052    -0.7913     1.7859 H            1    LIG   0.0000
  14 H            0.3774    -0.2324     2.5548 H            1    LIG   0.0000
  15 H            1.4365     0.8775     0.1086 H            1    LIG   0.0000
  16 H            0.1086     1.4365     0.8775 H            1    LIG   0.0000
  17 H            1.8969     5.3701     3.6369 H            1    LIG   0.0000
  18 H            2.8575     4.6760     4.7604 H            1    LIG   0.0000
  19 H            3.5156     5.3437     3.4233 H            1    LIG   0.0000
  20 H            0.3112     4.7426     2.5418 H            1    LIG   0.0000
  21 H            0.1534     4.0097     1.0911 H            1    LIG   0.0000
  22 H           -0.5120     3.3374     2.4222 H            1    LIG   0.0000
@<TRIPOS>BOND
   1        1        2 1
   2        2        3 1
   3        3        4 1
   4        4        5 1
   5        5        6 3
   6        4        7 2
   7        7        8 1
   8        8        9 1
   9        8       10 2
  10       10        3 1
  11       10       11 1
  12        1       12 1
  13        1       13 1
  14        1       14 1
  15        2       15 1
  16        2       16 1
  17        9       17 1
  18        9       18 1
  19        9       19 1
  20       11       20 1
  21       11       21 1
  22       11       22 1

