@<TRIPOS>MOLECULE
*****
 22 22 0 0 0
SMALL
USER_CHARGES

@<TRIPOS>ATOM
      1 C1          0.8139   -0.3549    1.6634 C.3     1  LIG1        0.0000
      2 C2          1.0000    1.0000    1.0000 C.3     1  LIG1        0.0000
      3 N3          1.8488    1.8488    1.8488 N.pl3   1  LIG1        0.0000
      4 C4          3.1260    2.2407    1.5796 C.2     1  LIG1        0.0000
      5 C5          3.9153    1.8648    0.3351 C.1     1  LIG1        0.0000
      6 N6          4.5070    1.5830   -0.5977 N.1     1  LIG1        0.0000
      7 N7          3.5831    2.9961    2.5503 N.2     1  LIG1        0.0000
      8 C8          2.5926    3.1048    3.4807 C.2     1  LIG1        0.0000
      9 C9          2.6803    3.8913    4.7788 C.3     1  LIG1        0.0000
     10 C10         1.5182    2.3935    3.0495 C.2     1  LIG1        0.0000
     11 C11         0.1886    2.2405    3.7704 C.3     1  LIG1        0.0000
     12 H           0.2365   -0.9322    1.0861 H       1  LIG1        0.0000
     13 H           1.7052   -0.7913    1.7859 H       1  LIG1        0.0000
     14 H           0.3774   -0.2324    2.5548 H       1  LIG1        0.0000
     15 H           1.4365    0.8775    0.1086 H       1  LIG1        0.0000
     16 H           0.1086    1.4365    0.8775 H       1  LIG1        0.0000
     17 H           1.8182    3.8071    5.2785 H       1  LIG1        0.0000
     18 H           3.4263    3.5296    5.3379 H       1  LIG1        0.0000
     19 H           2.8541    4.8545    4.5739 H       1  LIG1        0.0000
     20 H           0.2173    2.7450    4.6334 H       1  LIG1        0.0000
     21 H          -0.5455    2.6033    3.1965 H       1  LIG1        0.0000
     22 H           0.0194    1.2725    3.9558 H       1  LIG1        0.0000
@<TRIPOS>BOND
     1     1     2    1
     2     2     3    1
     3     3     4    1
     4     4     5    1
     5     5     6    3
     6     4     7    2
     7     7     8    1
     8     8     9    1
     9     8    10    2
    10    10     3    1
    11    10    11    1
    12     1    12    1
    13     1    13    1
    14     1    14    1
    15     2    15    1
    16     2    16    1
    17     9    17    1
    18     9    18    1
    19     9    19    1
    20    11    20    1
    21    11    21    1
    22    11    22    1
