@<TRIPOS>MOLECULE
*****
 22 22 0 0 0
SMALL
USER_CHARGES

@<TRIPOS>ATOM
      1 C1          0.8139   -0.3549    1.6634 C.3     1  LIG1        0.0000
      2 C2          1.0000    1.0000    1.0000 C.3     1  LIG1        0.0000
      3 N3          1.8488    1.8488    1.8488 N.pl3   1  LIG1        0.0000
      4 C4          3.2076    1.9399    1.7988 C.2     1  LIG1        0.0000
      5 C5          4.1042    1.1683    0.8428 C.1     1  LIG1        0.0000
      6 N6          4.7762    0.5899    0.1262 N.1     1  LIG1        0.0000
      7 N7          3.6386    2.7950    2.6960 N.2     1  LIG1        0.0000
      8 C8          2.5465    3.2774    3.3541 C.2     1  LIG1        0.0000
      9 C9          2.5716    4.2992    4.4797 C.3     1  LIG1        0.0000
     10 C10         1.4370    2.6915    2.8327 C.2     1  LIG1        0.0000
     11 C11        -0.0002    2.9373    3.2625 C.3     1  LIG1        0.0000
     12 H           0.2365   -0.9322    1.0861 H       1  LIG1        0.0000
     13 H           1.7052   -0.7913    1.7859 H       1  LIG1        0.0000
     14 H           0.3774   -0.2324    2.5548 H       1  LIG1        0.0000
     15 H           1.4365    0.8775    0.1086 H       1  LIG1        0.0000
     16 H           0.1086    1.4365    0.8775 H       1  LIG1        0.0000
     17 H           1.6372    4.4800    4.7866 H       1  LIG1        0.0000
     18 H           3.1098    3.9413    5.2428 H       1  LIG1        0.0000
     19 H           2.9843    5.1483    4.1500 H       1  LIG1        0.0000
     20 H          -0.0160    3.6042    4.0075 H       1  LIG1        0.0000
     21 H          -0.5241    3.2908    2.4875 H       1  LIG1        0.0000
     22 H          -0.4061    2.0785    3.5752 H       1  LIG1        0.0000
@<TRIPOS>BOND
     1     1     2    1
     2     2     3    1
     3     3     4    1
     4     4     5    1
     5     5     6    3
     6     4     7    2
     7     7     8    1
     8     8     9    1
     9     8    10    2
    10    10     3    1
    11    10    11    1
    12     1    12    1
    13     1    13    1
    14     1    14    1
    15     2    15    1
    16     2    16    1
    17     9    17    1
    18     9    18    1
    19     9    19    1
    20    11    20    1
    21    11    21    1
    22    11    22    1
