@<TRIPOS>MOLECULE
*****
 22 22 0 0 0
SMALL
USER_CHARGES

@<TRIPOS>ATOM
      1 C1          0.8139   -0.3549    1.6634 C.3     1  LIG1        0.0000
      2 C2          1.0000    1.0000    1.0000 C.3     1  LIG1        0.0000
      3 N3          1.8488    1.8488    1.8488 N.pl3   1  LIG1        0.0000
      4 C4          1.6313    2.1565    3.1585 C.2     1  LIG1        0.0000
      5 C5          0.4540    1.6711    3.9901 C.1     1  LIG1        0.0000
      6 N6         -0.4284    1.3073    4.6134 N.1     1  LIG1        0.0000
      7 N7          2.5883    2.9343    3.6070 N.2     1  LIG1        0.0000
      8 C8          3.4541    3.1481    2.5759 C.2     1  LIG1        0.0000
      9 C9          4.7164    3.9929    2.6411 C.3     1  LIG1        0.0000
     10 C10         2.9973    2.4786    1.4854 C.2     1  LIG1        0.0000
     11 C11         3.6518    2.4337    0.1140 C.3     1  LIG1        0.0000
     12 H           0.2365   -0.9322    1.0861 H       1  LIG1        0.0000
     13 H           1.7052   -0.7913    1.7859 H       1  LIG1        0.0000
     14 H           0.3774   -0.2324    2.5548 H       1  LIG1        0.0000
     15 H           1.4365    0.8775    0.1086 H       1  LIG1        0.0000
     16 H           0.1086    1.4365    0.8775 H       1  LIG1        0.0000
     17 H           5.1692    3.9850    1.7495 H       1  LIG1        0.0000
     18 H           4.4765    4.9326    2.8848 H       1  LIG1        0.0000
     19 H           5.3339    3.6167    3.3319 H       1  LIG1        0.0000
     20 H           4.4854    2.9859    0.1243 H       1  LIG1        0.0000
     21 H           3.8814    1.4877   -0.1149 H       1  LIG1        0.0000
     22 H           3.0191    2.7979   -0.5694 H       1  LIG1        0.0000
@<TRIPOS>BOND
     1     1     2    1
     2     2     3    1
     3     3     4    1
     4     4     5    1
     5     5     6    3
     6     4     7    2
     7     7     8    1
     8     8     9    1
     9     8    10    2
    10    10     3    1
    11    10    11    1
    12     1    12    1
    13     1    13    1
    14     1    14    1
    15     2    15    1
    16     2    16    1
    17     9    17    1
    18     9    18    1
    19     9    19    1
    20    11    20    1
    21    11    21    1
    22    11    22    1
