@<TRIPOS>MOLECULE
*****
 22 22 0 0 0
SMALL
USER_CHARGES

@<TRIPOS>ATOM
      1 C1          0.8139   -0.3549    1.6634 C.3     1  LIG1        0.0000
      2 C2          1.0000    1.0000    1.0000 C.3     1  LIG1        0.0000
      3 N3          1.8488    1.8488    1.8488 N.pl3   1  LIG1        0.0000
      4 C4          1.4233    2.6910    2.8321 C.2     1  LIG1        0.0000
      5 C5         -0.0274    2.9085    3.2340 C.1     1  LIG1        0.0000
      6 N6         -1.1147    3.0716    3.5353 N.1     1  LIG1        0.0000
      7 N7          2.4478    3.2913    3.3904 N.2     1  LIG1        0.0000
      8 C8          3.5722    2.8413    2.7646 C.2     1  LIG1        0.0000
      9 C9          4.9954    3.2678    3.0873 C.3     1  LIG1        0.0000
     10 C10         3.2038    1.9493    1.8081 C.2     1  LIG1        0.0000
     11 C11         4.1333    1.1958    0.8705 C.3     1  LIG1        0.0000
     12 H           0.2365   -0.9322    1.0861 H       1  LIG1        0.0000
     13 H           1.7052   -0.7913    1.7859 H       1  LIG1        0.0000
     14 H           0.3774   -0.2324    2.5548 H       1  LIG1        0.0000
     15 H           1.4365    0.8775    0.1086 H       1  LIG1        0.0000
     16 H           0.1086    1.4365    0.8775 H       1  LIG1        0.0000
     17 H           5.6320    2.7892    2.4826 H       1  LIG1        0.0000
     18 H           5.0862    4.2546    2.9531 H       1  LIG1        0.0000
     19 H           5.2041    3.0401    4.0384 H       1  LIG1        0.0000
     20 H           5.0798    1.4596    1.0563 H       1  LIG1        0.0000
     21 H           4.0269    0.2120    1.0153 H       1  LIG1        0.0000
     22 H           3.9045    1.4199   -0.0768 H       1  LIG1        0.0000
@<TRIPOS>BOND
     1     1     2    1
     2     2     3    1
     3     3     4    1
     4     4     5    1
     5     5     6    3
     6     4     7    2
     7     7     8    1
     8     8     9    1
     9     8    10    2
    10    10     3    1
    11    10    11    1
    12     1    12    1
    13     1    13    1
    14     1    14    1
    15     2    15    1
    16     2    16    1
    17     9    17    1
    18     9    18    1
    19     9    19    1
    20    11    20    1
    21    11    21    1
    22    11    22    1
