@<TRIPOS>MOLECULE
*****
 22 22 0 0 0
SMALL
USER_CHARGES

@<TRIPOS>ATOM
      1 C1          0.8139   -0.3549    1.6634 C.3     1  LIG1        0.0000
      2 C2          1.0000    1.0000    1.0000 C.3     1  LIG1        0.0000
      3 N3          1.8488    1.8488    1.8488 N.pl3   1  LIG1        0.0000
      4 C4          2.9996    2.4743    1.4724 C.2     1  LIG1        0.0000
      5 C5          3.6228    2.4057    0.0868 C.1     1  LIG1        0.0000
      6 N6          4.0899    2.3542   -0.9519 N.1     1  LIG1        0.0000
      7 N7          3.4981    3.1521    2.4794 N.2     1  LIG1        0.0000
      8 C8          2.6647    2.9706    3.5428 C.2     1  LIG1        0.0000
      9 C9          2.8505    3.5741    4.9259 C.3     1  LIG1        0.0000
     10 C10         1.6436    2.1622    3.1555 C.2     1  LIG1        0.0000
     11 C11         0.4812    1.6993    4.0190 C.3     1  LIG1        0.0000
     12 H           0.2365   -0.9322    1.0861 H       1  LIG1        0.0000
     13 H           1.7052   -0.7913    1.7859 H       1  LIG1        0.0000
     14 H           0.3774   -0.2324    2.5548 H       1  LIG1        0.0000
     15 H           1.4365    0.8775    0.1086 H       1  LIG1        0.0000
     16 H           0.1086    1.4365    0.8775 H       1  LIG1        0.0000
     17 H           2.1000    3.2842    5.5197 H       1  LIG1        0.0000
     18 H           3.7194    3.2633    5.3111 H       1  LIG1        0.0000
     19 H           2.8545    4.5716    4.8565 H       1  LIG1        0.0000
     20 H           0.5784    2.0779    4.9395 H       1  LIG1        0.0000
     21 H          -0.3786    2.0151    3.6177 H       1  LIG1        0.0000
     22 H           0.4793    0.7005    4.0678 H       1  LIG1        0.0000
@<TRIPOS>BOND
     1     1     2    1
     2     2     3    1
     3     3     4    1
     4     4     5    1
     5     5     6    3
     6     4     7    2
     7     7     8    1
     8     8     9    1
     9     8    10    2
    10    10     3    1
    11    10    11    1
    12     1    12    1
    13     1    13    1
    14     1    14    1
    15     2    15    1
    16     2    16    1
    17     9    17    1
    18     9    18    1
    19     9    19    1
    20    11    20    1
    21    11    21    1
    22    11    22    1
