@<TRIPOS>MOLECULE
*****
 22 22 0 0 0
SMALL
USER_CHARGES

@<TRIPOS>ATOM
      1 C1          0.8139   -0.3549    1.6634 C.3     1  LIG1        0.0000
      2 C2          1.0000    1.0000    1.0000 C.3     1  LIG1        0.0000
      3 N3          1.8488    1.8488    1.8488 N.pl3   1  LIG1        0.0000
      4 C4          3.0930    1.5413    2.3121 C.2     1  LIG1        0.0000
      5 C5          3.8384    0.2456    2.0312 C.1     1  LIG1        0.0000
      6 N6          4.3971   -0.7256    1.8207 N.1     1  LIG1        0.0000
      7 N7          3.5637    2.5278    3.0381 N.2     1  LIG1        0.0000
      8 C8          2.6139    3.5054    3.0587 C.2     1  LIG1        0.0000
      9 C9          2.7310    4.8378    3.7817 C.3     1  LIG1        0.0000
     10 C10         1.5500    3.0866    2.3246 C.2     1  LIG1        0.0000
     11 C11         0.2658    3.8603    2.0734 C.3     1  LIG1        0.0000
     12 H           0.2365   -0.9322    1.0861 H       1  LIG1        0.0000
     13 H           1.7052   -0.7913    1.7859 H       1  LIG1        0.0000
     14 H           0.3774   -0.2324    2.5548 H       1  LIG1        0.0000
     15 H           1.4365    0.8775    0.1086 H       1  LIG1        0.0000
     16 H           0.1086    1.4365    0.8775 H       1  LIG1        0.0000
     17 H           1.8969    5.3701    3.6369 H       1  LIG1        0.0000
     18 H           2.8575    4.6760    4.7604 H       1  LIG1        0.0000
     19 H           3.5156    5.3437    3.4233 H       1  LIG1        0.0000
     20 H           0.3112    4.7426    2.5418 H       1  LIG1        0.0000
     21 H           0.1534    4.0097    1.0911 H       1  LIG1        0.0000
     22 H          -0.5120    3.3374    2.4222 H       1  LIG1        0.0000
@<TRIPOS>BOND
     1     1     2    1
     2     2     3    1
     3     3     4    1
     4     4     5    1
     5     5     6    3
     6     4     7    2
     7     7     8    1
     8     8     9    1
     9     8    10    2
    10    10     3    1
    11    10    11    1
    12     1    12    1
    13     1    13    1
    14     1    14    1
    15     2    15    1
    16     2    16    1
    17     9    17    1
    18     9    18    1
    19     9    19    1
    20    11    20    1
    21    11    21    1
    22    11    22    1
