@<TRIPOS>MOLECULE
*****
 22 22 0 0 0
SMALL
USER_CHARGES

@<TRIPOS>ATOM
      1 C1          0.8139   -0.3549    1.6634 C.3     1  LIG1        0.0000
      2 C2          1.0000    1.0000    1.0000 C.3     1  LIG1        0.0000
      3 N3          1.8488    1.8488    1.8488 N.pl3   1  LIG1        0.0000
      4 C4          3.1817    1.6844    2.0803 C.2     1  LIG1        0.0000
      5 C5          4.0439    0.5767    1.4946 C.1     1  LIG1        0.0000
      6 N6          4.6901   -0.2535    1.0556 N.1     1  LIG1        0.0000
      7 N7          3.6222    2.6239    2.8835 N.2     1  LIG1        0.0000
      8 C8          2.5623    3.4238    3.1920 C.2     1  LIG1        0.0000
      9 C9          2.6090    4.6449    4.0966 C.3     1  LIG1        0.0000
     10 C10         1.4624    2.9447    2.5541 C.2     1  LIG1        0.0000
     11 C11         0.0602    3.5290    2.6103 C.3     1  LIG1        0.0000
     12 H           0.2365   -0.9322    1.0861 H       1  LIG1        0.0000
     13 H           1.7052   -0.7913    1.7859 H       1  LIG1        0.0000
     14 H           0.3774   -0.2324    2.5548 H       1  LIG1        0.0000
     15 H           1.4365    0.8775    0.1086 H       1  LIG1        0.0000
     16 H           0.1086    1.4365    0.8775 H       1  LIG1        0.0000
     17 H           1.6971    5.0509    4.1558 H       1  LIG1        0.0000
     18 H           2.9124    4.3720    5.0095 H       1  LIG1        0.0000
     19 H           3.2484    5.3149    3.7193 H       1  LIG1        0.0000
     20 H           0.0580    4.3340    3.2037 H       1  LIG1        0.0000
     21 H          -0.2283    3.7927    1.6898 H       1  LIG1        0.0000
     22 H          -0.5717    2.8448    2.9745 H       1  LIG1        0.0000
@<TRIPOS>BOND
     1     1     2    1
     2     2     3    1
     3     3     4    1
     4     4     5    1
     5     5     6    3
     6     4     7    2
     7     7     8    1
     8     8     9    1
     9     8    10    2
    10    10     3    1
    11    10    11    1
    12     1    12    1
    13     1    13    1
    14     1    14    1
    15     2    15    1
    16     2    16    1
    17     9    17    1
    18     9    18    1
    19     9    19    1
    20    11    20    1
    21    11    21    1
    22    11    22    1
