@<TRIPOS>MOLECULE

  58   63
SMALL
USER_CHARGES
@<TRIPOS>ATOM
   1 C1          -3.5886     2.2050     0.0436 C.3          1    LIG   0.0000
   2 O2          -2.4079     1.4161     0.0284 O.3          1    LIG   0.0000
   3 C3          -1.2821     2.0859     0.0254 C.2          1    LIG   0.0000
   4 O4          -1.2978     3.2858     0.0354 O.2          1    LIG   0.0000
   5 C5          -0.0173     1.3776     0.0102 C.ar         1    LIG   0.0000
   6 C6           1.1712     2.1003     0.0072 C.ar         1    LIG   0.0000
   7 C7           2.3824     1.4162    -0.0077 C.ar         1    LIG   0.0000
   8 C8           2.3953     0.0257    -0.0205 C.ar         1    LIG   0.0000
   9 C9           3.7197    -0.7119    -0.0371 C.3          1    LIG   0.0000
  10 C10          4.1619    -1.0482     1.3902 C.2          1    LIG   0.0000
  11 C11          4.7968    -2.1855     1.6828 C.2          1    LIG   0.0000
  12 N12          5.0395    -3.1264     0.6736 N.2          1    LIG   0.0000
  13 C13          4.5223    -2.9399    -0.4654 C.2          1    LIG   0.0000
  14 S14          4.6209    -4.1328    -1.7172 S.3          1    LIG   0.0000
  15 C15          3.5230    -3.3853    -2.8163 C.2          1    LIG   0.0000
  16 C16          3.1769    -3.8536    -4.0078 C.2          1    LIG   0.0000
  17 C17          3.6980    -5.1271    -4.4657 C.ar         1    LIG   0.0000
  18 C18          4.5605    -5.8578    -3.6549 C.ar         1    LIG   0.0000
  19 C19          5.0604    -7.0792    -4.0936 C.ar         1    LIG   0.0000
  20 C20          4.6969    -7.5716    -5.3430 C.ar         1    LIG   0.0000
  21 C21          3.8337    -6.8415    -6.1542 C.ar         1    LIG   0.0000
  22 C22          3.3350    -5.6192    -5.7163 C.ar         1    LIG   0.0000
  23 O23          2.4999    -4.9326    -6.5251 O.3          1    LIG   0.0000
  24 C24          3.1329    -2.1637    -2.1683 C.2          1    LIG   0.0000
  25 O25          2.3588    -1.4277    -2.7515 O.2          1    LIG   0.0000
  26 N26          3.7314    -1.8969    -0.9152 N.am         1    LIG   0.0000
  27 C27          5.2644    -2.4644     3.0292 C.ar         1    LIG   0.0000
  28 C28          6.2487    -3.4036     3.3289 C.ar         1    LIG   0.0000
  29 C29          6.6463    -3.6588     4.6382 C.ar         1    LIG   0.0000
  30 C30          6.0512    -2.9587     5.6826 C.ar         1    LIG   0.0000
  31 C31          5.0729    -2.0131     5.3979 C.ar         1    LIG   0.0000
  32 C32          4.6896    -1.7773     4.0841 C.ar         1    LIG   0.0000
  33 C33          3.6159    -0.7427     3.8029 C.3          1    LIG   0.0000
  34 C34          3.9093    -0.0353     2.4954 C.3          1    LIG   0.0000
  35 C35          1.2016    -0.6895    -0.0163 C.ar         1    LIG   0.0000
  36 C36         -0.0137    -0.0137    -0.0015 C.ar         1    LIG   0.0000
  37 H            4.3978    -0.0756    -0.4050 H            1    LIG   0.0000
  38 H           -4.3895     1.6063     0.0447 H            1    LIG   0.0000
  39 H           -3.5977     2.7755     0.8649 H            1    LIG   0.0000
  40 H           -3.6099     2.7888    -0.7680 H            1    LIG   0.0000
  41 H            1.1552     3.1001     0.0158 H            1    LIG   0.0000
  42 H            3.2436     1.9243    -0.0092 H            1    LIG   0.0000
  43 H            2.5566    -3.3285    -4.5905 H            1    LIG   0.0000
  44 H            4.8211    -5.5047    -2.7563 H            1    LIG   0.0000
  45 H            5.6813    -7.6036    -3.5109 H            1    LIG   0.0000
  46 H            5.0560    -8.4501    -5.6581 H            1    LIG   0.0000
  47 H            3.5719    -7.1956    -7.0520 H            1    LIG   0.0000
  48 H            2.2521    -5.3045    -7.4197 H            1    LIG   0.0000
  49 H            6.6818    -3.9087     2.5824 H            1    LIG   0.0000
  50 H            7.3540    -4.3398     4.8265 H            1    LIG   0.0000
  51 H            6.3244    -3.1339     6.6284 H            1    LIG   0.0000
  52 H            4.6436    -1.5009     6.1417 H            1    LIG   0.0000
  53 H            3.5985    -0.0731     4.5454 H            1    LIG   0.0000
  54 H            2.7267    -1.1962     3.7421 H            1    LIG   0.0000
  55 H            3.1267     0.5355     2.2468 H            1    LIG   0.0000
  56 H            4.7196     0.5401     2.6066 H            1    LIG   0.0000
  57 H            1.2177    -1.6893    -0.0240 H            1    LIG   0.0000
  58 H           -0.8750    -0.5218     0.0008 H            1    LIG   0.0000
@<TRIPOS>BOND
   1        1        2 1
   2        2        3 1
   3        3        4 2
   4        3        5 1
   5        5        6 ar
   6        6        7 ar
   7        7        8 ar
   8        8        9 1
   9        9       10 1
  10       10       11 2
  11       11       12 1
  12       12       13 2
  13       13       14 1
  14       14       15 1
  15       15       16 2
  16       16       17 1
  17       17       18 ar
  18       18       19 ar
  19       19       20 ar
  20       20       21 ar
  21       21       22 ar
  22       22       17 ar
  23       22       23 1
  24       15       24 1
  25       24       25 2
  26       24       26 am
  27       26       13 1
  28       26        9 1
  29       11       27 1
  30       27       28 ar
  31       28       29 ar
  32       29       30 ar
  33       30       31 ar
  34       31       32 ar
  35       32       27 ar
  36       32       33 1
  37       33       34 1
  38       34       10 1
  39        8       35 ar
  40       35       36 ar
  41       36        5 ar
  42        9       37 1
  43        1       38 1
  44        1       39 1
  45        1       40 1
  46        6       41 1
  47        7       42 1
  48       16       43 1
  49       18       44 1
  50       19       45 1
  51       20       46 1
  52       21       47 1
  53       23       48 1
  54       28       49 1
  55       29       50 1
  56       30       51 1
  57       31       52 1
  58       33       53 1
  59       33       54 1
  60       34       55 1
  61       34       56 1
  62       35       57 1
  63       36       58 1

@<TRIPOS>MOLECULE

  58   63
SMALL
USER_CHARGES
@<TRIPOS>ATOM
   1 C1          -3.5886     2.2050     0.0436 C.3          1    LIG   0.0000
   2 O2          -2.4079     1.4161     0.0284 O.3          1    LIG   0.0000
   3 C3          -1.2821     2.0859     0.0254 C.2          1    LIG   0.0000
   4 O4          -1.2978     3.2858     0.0354 O.2          1    LIG   0.0000
   5 C5          -0.0173     1.3776     0.0102 C.ar         1    LIG   0.0000
   6 C6           1.1712     2.1003     0.0072 C.ar         1    LIG   0.0000
   7 C7           2.3824     1.4162    -0.0077 C.ar         1    LIG   0.0000
   8 C8           2.3953     0.0257    -0.0205 C.ar         1    LIG   0.0000
   9 C9           3.7197    -0.7119    -0.0371 C.3          1    LIG   0.0000
  10 C10          4.1619    -1.0482     1.3902 C.2          1    LIG   0.0000
  11 C11          4.7968    -2.1855     1.6828 C.2          1    LIG   0.0000
  12 N12          5.0395    -3.1264     0.6736 N.2          1    LIG   0.0000
  13 C13          4.5223    -2.9399    -0.4654 C.2          1    LIG   0.0000
  14 S14          4.6209    -4.1328    -1.7172 S.3          1    LIG   0.0000
  15 C15          3.5230    -3.3853    -2.8163 C.2          1    LIG   0.0000
  16 C16          3.1769    -3.8536    -4.0078 C.2          1    LIG   0.0000
  17 C17          3.6980    -5.1271    -4.4657 C.ar         1    LIG   0.0000
  18 C18          2.8251    -6.1662    -4.7720 C.ar         1    LIG   0.0000
  19 C19          3.3244    -7.3877    -5.2112 C.ar         1    LIG   0.0000
  20 C20          4.6970    -7.5705    -5.3459 C.ar         1    LIG   0.0000
  21 C21          5.5704    -6.5313    -5.0404 C.ar         1    LIG   0.0000
  22 C22          5.0714    -5.3103    -4.5996 C.ar         1    LIG   0.0000
  23 O23          5.9428    -4.3204    -4.3098 O.3          1    LIG   0.0000
  24 C24          3.1329    -2.1637    -2.1683 C.2          1    LIG   0.0000
  25 O25          2.3588    -1.4277    -2.7515 O.2          1    LIG   0.0000
  26 N26          3.7314    -1.8969    -0.9152 N.am         1    LIG   0.0000
  27 C27          5.2644    -2.4644     3.0292 C.ar         1    LIG   0.0000
  28 C28          6.2487    -3.4036     3.3289 C.ar         1    LIG   0.0000
  29 C29          6.6463    -3.6588     4.6382 C.ar         1    LIG   0.0000
  30 C30          6.0512    -2.9587     5.6826 C.ar         1    LIG   0.0000
  31 C31          5.0729    -2.0131     5.3979 C.ar         1    LIG   0.0000
  32 C32          4.6896    -1.7773     4.0841 C.ar         1    LIG   0.0000
  33 C33          3.6159    -0.7427     3.8029 C.3          1    LIG   0.0000
  34 C34          3.9093    -0.0353     2.4954 C.3          1    LIG   0.0000
  35 C35          1.2016    -0.6895    -0.0163 C.ar         1    LIG   0.0000
  36 C36         -0.0137    -0.0137    -0.0015 C.ar         1    LIG   0.0000
  37 H            4.3978    -0.0756    -0.4050 H            1    LIG   0.0000
  38 H           -4.3895     1.6063     0.0447 H            1    LIG   0.0000
  39 H           -3.5977     2.7755     0.8649 H            1    LIG   0.0000
  40 H           -3.6099     2.7888    -0.7680 H            1    LIG   0.0000
  41 H            1.1552     3.1001     0.0158 H            1    LIG   0.0000
  42 H            3.2436     1.9243    -0.0092 H            1    LIG   0.0000
  43 H            2.5566    -3.3285    -4.5905 H            1    LIG   0.0000
  44 H            1.8384    -6.0348    -4.6762 H            1    LIG   0.0000
  45 H            2.6967    -8.1347    -5.4302 H            1    LIG   0.0000
  46 H            5.0558    -8.4486    -5.6624 H            1    LIG   0.0000
  47 H            6.5570    -6.6625    -5.1378 H            1    LIG   0.0000
  48 H            6.9256    -4.4734    -4.4130 H            1    LIG   0.0000
  49 H            6.6818    -3.9087     2.5824 H            1    LIG   0.0000
  50 H            7.3540    -4.3398     4.8265 H            1    LIG   0.0000
  51 H            6.3244    -3.1339     6.6284 H            1    LIG   0.0000
  52 H            4.6436    -1.5009     6.1417 H            1    LIG   0.0000
  53 H            3.5985    -0.0731     4.5454 H            1    LIG   0.0000
  54 H            2.7267    -1.1962     3.7421 H            1    LIG   0.0000
  55 H            3.1267     0.5355     2.2468 H            1    LIG   0.0000
  56 H            4.7196     0.5401     2.6066 H            1    LIG   0.0000
  57 H            1.2177    -1.6893    -0.0240 H            1    LIG   0.0000
  58 H           -0.8750    -0.5218     0.0008 H            1    LIG   0.0000
@<TRIPOS>BOND
   1        1        2 1
   2        2        3 1
   3        3        4 2
   4        3        5 1
   5        5        6 ar
   6        6        7 ar
   7        7        8 ar
   8        8        9 1
   9        9       10 1
  10       10       11 2
  11       11       12 1
  12       12       13 2
  13       13       14 1
  14       14       15 1
  15       15       16 2
  16       16       17 1
  17       17       18 ar
  18       18       19 ar
  19       19       20 ar
  20       20       21 ar
  21       21       22 ar
  22       22       17 ar
  23       22       23 1
  24       15       24 1
  25       24       25 2
  26       24       26 am
  27       26       13 1
  28       26        9 1
  29       11       27 1
  30       27       28 ar
  31       28       29 ar
  32       29       30 ar
  33       30       31 ar
  34       31       32 ar
  35       32       27 ar
  36       32       33 1
  37       33       34 1
  38       34       10 1
  39        8       35 ar
  40       35       36 ar
  41       36        5 ar
  42        9       37 1
  43        1       38 1
  44        1       39 1
  45        1       40 1
  46        6       41 1
  47        7       42 1
  48       16       43 1
  49       18       44 1
  50       19       45 1
  51       20       46 1
  52       21       47 1
  53       23       48 1
  54       28       49 1
  55       29       50 1
  56       30       51 1
  57       31       52 1
  58       33       53 1
  59       33       54 1
  60       34       55 1
  61       34       56 1
  62       35       57 1
  63       36       58 1

@<TRIPOS>MOLECULE

  58   63
SMALL
USER_CHARGES
@<TRIPOS>ATOM
   1 C1          -3.5886     2.2050     0.0436 C.3          1    LIG   0.0000
   2 O2          -2.4079     1.4161     0.0284 O.3          1    LIG   0.0000
   3 C3          -1.2821     2.0859     0.0254 C.2          1    LIG   0.0000
   4 O4          -1.2978     3.2858     0.0354 O.2          1    LIG   0.0000
   5 C5          -0.0173     1.3776     0.0102 C.ar         1    LIG   0.0000
   6 C6           1.1712     2.1003     0.0072 C.ar         1    LIG   0.0000
   7 C7           2.3824     1.4162    -0.0077 C.ar         1    LIG   0.0000
   8 C8           2.3953     0.0257    -0.0205 C.ar         1    LIG   0.0000
   9 C9           3.7197    -0.7119    -0.0371 C.3          1    LIG   0.0000
  10 C10          4.1619    -1.0482     1.3902 C.2          1    LIG   0.0000
  11 C11          4.7968    -2.1855     1.6828 C.2          1    LIG   0.0000
  12 N12          5.0395    -3.1264     0.6736 N.2          1    LIG   0.0000
  13 C13          4.5223    -2.9399    -0.4654 C.2          1    LIG   0.0000
  14 S14          4.6209    -4.1328    -1.7172 S.3          1    LIG   0.0000
  15 C15          3.5230    -3.3853    -2.8163 C.2          1    LIG   0.0000
  16 C16          3.1769    -3.8536    -4.0078 C.2          1    LIG   0.0000
  17 C17          3.6980    -5.1271    -4.4657 C.ar         1    LIG   0.0000
  18 C18          4.4580    -5.1898    -5.6292 C.ar         1    LIG   0.0000
  19 C19          4.9580    -6.4109    -6.0687 C.ar         1    LIG   0.0000
  20 C20          4.6995    -7.5701    -5.3441 C.ar         1    LIG   0.0000
  21 C21          3.9398    -7.5079    -4.1800 C.ar         1    LIG   0.0000
  22 C22          3.4384    -6.2871    -3.7413 C.ar         1    LIG   0.0000
  23 O23          2.7040    -6.2573    -2.6086 O.3          1    LIG   0.0000
  24 C24          3.1329    -2.1637    -2.1683 C.2          1    LIG   0.0000
  25 O25          2.3588    -1.4277    -2.7515 O.2          1    LIG   0.0000
  26 N26          3.7314    -1.8969    -0.9152 N.am         1    LIG   0.0000
  27 C27          5.2644    -2.4644     3.0292 C.ar         1    LIG   0.0000
  28 C28          6.2487    -3.4036     3.3289 C.ar         1    LIG   0.0000
  29 C29          6.6463    -3.6588     4.6382 C.ar         1    LIG   0.0000
  30 C30          6.0512    -2.9587     5.6826 C.ar         1    LIG   0.0000
  31 C31          5.0729    -2.0131     5.3979 C.ar         1    LIG   0.0000
  32 C32          4.6896    -1.7773     4.0841 C.ar         1    LIG   0.0000
  33 C33          3.6159    -0.7427     3.8029 C.3          1    LIG   0.0000
  34 C34          3.9093    -0.0353     2.4954 C.3          1    LIG   0.0000
  35 C35          1.2016    -0.6895    -0.0163 C.ar         1    LIG   0.0000
  36 C36         -0.0137    -0.0137    -0.0015 C.ar         1    LIG   0.0000
  37 H            4.3978    -0.0756    -0.4050 H            1    LIG   0.0000
  38 H           -4.3895     1.6063     0.0447 H            1    LIG   0.0000
  39 H           -3.5977     2.7755     0.8649 H            1    LIG   0.0000
  40 H           -3.6099     2.7888    -0.7680 H            1    LIG   0.0000
  41 H            1.1552     3.1001     0.0158 H            1    LIG   0.0000
  42 H            3.2436     1.9243    -0.0092 H            1    LIG   0.0000
  43 H            2.5566    -3.3285    -4.5905 H            1    LIG   0.0000
  44 H            4.6449    -4.3566    -6.1497 H            1    LIG   0.0000
  45 H            5.5034    -6.4558    -6.9057 H            1    LIG   0.0000
  46 H            5.0595    -8.4480    -5.6599 H            1    LIG   0.0000
  47 H            3.7545    -8.3409    -3.6588 H            1    LIG   0.0000
  48 H            2.5294    -7.1025    -2.1035 H            1    LIG   0.0000
  49 H            6.6818    -3.9087     2.5824 H            1    LIG   0.0000
  50 H            7.3540    -4.3398     4.8265 H            1    LIG   0.0000
  51 H            6.3244    -3.1339     6.6284 H            1    LIG   0.0000
  52 H            4.6436    -1.5009     6.1417 H            1    LIG   0.0000
  53 H            3.5985    -0.0731     4.5454 H            1    LIG   0.0000
  54 H            2.7267    -1.1962     3.7421 H            1    LIG   0.0000
  55 H            3.1267     0.5355     2.2468 H            1    LIG   0.0000
  56 H            4.7196     0.5401     2.6066 H            1    LIG   0.0000
  57 H            1.2177    -1.6893    -0.0240 H            1    LIG   0.0000
  58 H           -0.8750    -0.5218     0.0008 H            1    LIG   0.0000
@<TRIPOS>BOND
   1        1        2 1
   2        2        3 1
   3        3        4 2
   4        3        5 1
   5        5        6 ar
   6        6        7 ar
   7        7        8 ar
   8        8        9 1
   9        9       10 1
  10       10       11 2
  11       11       12 1
  12       12       13 2
  13       13       14 1
  14       14       15 1
  15       15       16 2
  16       16       17 1
  17       17       18 ar
  18       18       19 ar
  19       19       20 ar
  20       20       21 ar
  21       21       22 ar
  22       22       17 ar
  23       22       23 1
  24       15       24 1
  25       24       25 2
  26       24       26 am
  27       26       13 1
  28       26        9 1
  29       11       27 1
  30       27       28 ar
  31       28       29 ar
  32       29       30 ar
  33       30       31 ar
  34       31       32 ar
  35       32       27 ar
  36       32       33 1
  37       33       34 1
  38       34       10 1
  39        8       35 ar
  40       35       36 ar
  41       36        5 ar
  42        9       37 1
  43        1       38 1
  44        1       39 1
  45        1       40 1
  46        6       41 1
  47        7       42 1
  48       16       43 1
  49       18       44 1
  50       19       45 1
  51       20       46 1
  52       21       47 1
  53       23       48 1
  54       28       49 1
  55       29       50 1
  56       30       51 1
  57       31       52 1
  58       33       53 1
  59       33       54 1
  60       34       55 1
  61       34       56 1
  62       35       57 1
  63       36       58 1

@<TRIPOS>MOLECULE

  58   63
SMALL
USER_CHARGES
@<TRIPOS>ATOM
   1 C1          -3.5886     2.2050     0.0436 C.3          1    LIG   0.0000
   2 O2          -2.4079     1.4161     0.0284 O.3          1    LIG   0.0000
   3 C3          -1.2821     2.0859     0.0254 C.2          1    LIG   0.0000
   4 O4          -1.2978     3.2858     0.0354 O.2          1    LIG   0.0000
   5 C5          -0.0173     1.3776     0.0102 C.ar         1    LIG   0.0000
   6 C6           1.1712     2.1003     0.0072 C.ar         1    LIG   0.0000
   7 C7           2.3824     1.4162    -0.0077 C.ar         1    LIG   0.0000
   8 C8           2.3953     0.0257    -0.0205 C.ar         1    LIG   0.0000
   9 C9           3.7197    -0.7119    -0.0371 C.3          1    LIG   0.0000
  10 C10          4.3318    -0.6793    -1.4407 C.2          1    LIG   0.0000
  11 C11          5.6491    -0.5804    -1.6339 C.2          1    LIG   0.0000
  12 N12          6.5071    -0.4639    -0.5326 N.2          1    LIG   0.0000
  13 C13          6.0008    -0.3095     0.6160 C.2          1    LIG   0.0000
  14 S14          6.9795     0.0188     2.0066 S.3          1    LIG   0.0000
  15 C15          5.6937     0.3796     3.0969 C.2          1    LIG   0.0000
  16 C16          5.8281     0.7187     4.3719 C.2          1    LIG   0.0000
  17 C17          7.1510     0.8618     4.9486 C.ar         1    LIG   0.0000
  18 C18          8.2790     0.6436     4.1641 C.ar         1    LIG   0.0000
  19 C19          9.5479     0.7807     4.7168 C.ar         1    LIG   0.0000
  20 C20          9.6897     1.1375     6.0540 C.ar         1    LIG   0.0000
  21 C21          8.5618     1.3564     6.8389 C.ar         1    LIG   0.0000
  22 C22          7.2928     1.2177     6.2869 C.ar         1    LIG   0.0000
  23 O23          6.2167     1.4358     7.0727 O.3          1    LIG   0.0000
  24 C24          4.4966     0.1839     2.3268 C.2          1    LIG   0.0000
  25 O25          3.4258     0.3618     2.8773 O.2          1    LIG   0.0000
  26 N26          4.6703    -0.2540     0.9934 N.am         1    LIG   0.0000
  27 C27          6.2210    -0.6119    -2.9686 C.ar         1    LIG   0.0000
  28 C28          7.5564    -0.9080    -3.2329 C.ar         1    LIG   0.0000
  29 C29          8.0685    -0.8988    -4.5271 C.ar         1    LIG   0.0000
  30 C30          7.2297    -0.5890    -5.5926 C.ar         1    LIG   0.0000
  31 C31          5.8930    -0.2988    -5.3446 C.ar         1    LIG   0.0000
  32 C32          5.4045    -0.3108    -4.0447 C.ar         1    LIG   0.0000
  33 C33          3.9423     0.0145    -3.8028 C.3          1    LIG   0.0000
  34 C34          3.4140    -0.8090    -2.6457 C.3          1    LIG   0.0000
  35 C35          1.2016    -0.6895    -0.0163 C.ar         1    LIG   0.0000
  36 C36         -0.0137    -0.0137    -0.0015 C.ar         1    LIG   0.0000
  37 H            3.5170    -1.6700     0.1652 H            1    LIG   0.0000
  38 H           -4.3895     1.6063     0.0447 H            1    LIG   0.0000
  39 H           -3.5977     2.7755     0.8649 H            1    LIG   0.0000
  40 H           -3.6099     2.7888    -0.7680 H            1    LIG   0.0000
  41 H            1.1552     3.1001     0.0158 H            1    LIG   0.0000
  42 H            3.2436     1.9243    -0.0092 H            1    LIG   0.0000
  43 H            5.0172     0.8759     4.9357 H            1    LIG   0.0000
  44 H            8.1775     0.3882     3.2027 H            1    LIG   0.0000
  45 H           10.3585     0.6228     4.1529 H            1    LIG   0.0000
  46 H           10.6021     1.2367     6.4510 H            1    LIG   0.0000
  47 H            8.6636     1.6135     7.7999 H            1    LIG   0.0000
  48 H            6.3412     1.6907     8.0316 H            1    LIG   0.0000
  49 H            8.1640    -1.1335    -2.4714 H            1    LIG   0.0000
  50 H            9.0317    -1.1131    -4.6896 H            1    LIG   0.0000
  51 H            7.5845    -0.5752    -6.5274 H            1    LIG   0.0000
  52 H            5.2812    -0.0805    -6.1048 H            1    LIG   0.0000
  53 H            3.4155    -0.1953    -4.6265 H            1    LIG   0.0000
  54 H            3.8505     0.9865    -3.5869 H            1    LIG   0.0000
  55 H            2.5004    -0.4847    -2.4004 H            1    LIG   0.0000
  56 H            3.3643    -1.7693    -2.9202 H            1    LIG   0.0000
  57 H            1.2177    -1.6893    -0.0240 H            1    LIG   0.0000
  58 H           -0.8750    -0.5218     0.0008 H            1    LIG   0.0000
@<TRIPOS>BOND
   1        1        2 1
   2        2        3 1
   3        3        4 2
   4        3        5 1
   5        5        6 ar
   6        6        7 ar
   7        7        8 ar
   8        8        9 1
   9        9       10 1
  10       10       11 2
  11       11       12 1
  12       12       13 2
  13       13       14 1
  14       14       15 1
  15       15       16 2
  16       16       17 1
  17       17       18 ar
  18       18       19 ar
  19       19       20 ar
  20       20       21 ar
  21       21       22 ar
  22       22       17 ar
  23       22       23 1
  24       15       24 1
  25       24       25 2
  26       24       26 am
  27       26       13 1
  28       26        9 1
  29       11       27 1
  30       27       28 ar
  31       28       29 ar
  32       29       30 ar
  33       30       31 ar
  34       31       32 ar
  35       32       27 ar
  36       32       33 1
  37       33       34 1
  38       34       10 1
  39        8       35 ar
  40       35       36 ar
  41       36        5 ar
  42        9       37 1
  43        1       38 1
  44        1       39 1
  45        1       40 1
  46        6       41 1
  47        7       42 1
  48       16       43 1
  49       18       44 1
  50       19       45 1
  51       20       46 1
  52       21       47 1
  53       23       48 1
  54       28       49 1
  55       29       50 1
  56       30       51 1
  57       31       52 1
  58       33       53 1
  59       33       54 1
  60       34       55 1
  61       34       56 1
  62       35       57 1
  63       36       58 1

@<TRIPOS>MOLECULE

  58   63
SMALL
USER_CHARGES
@<TRIPOS>ATOM
   1 C1          -3.5886     2.2050     0.0436 C.3          1    LIG   0.0000
   2 O2          -2.4079     1.4161     0.0284 O.3          1    LIG   0.0000
   3 C3          -1.2821     2.0859     0.0254 C.2          1    LIG   0.0000
   4 O4          -1.2978     3.2858     0.0354 O.2          1    LIG   0.0000
   5 C5          -0.0173     1.3776     0.0102 C.ar         1    LIG   0.0000
   6 C6           1.1712     2.1003     0.0072 C.ar         1    LIG   0.0000
   7 C7           2.3824     1.4162    -0.0077 C.ar         1    LIG   0.0000
   8 C8           2.3953     0.0257    -0.0205 C.ar         1    LIG   0.0000
   9 C9           3.7197    -0.7119    -0.0371 C.3          1    LIG   0.0000
  10 C10          4.3318    -0.6793    -1.4407 C.2          1    LIG   0.0000
  11 C11          5.6491    -0.5804    -1.6339 C.2          1    LIG   0.0000
  12 N12          6.5071    -0.4639    -0.5326 N.2          1    LIG   0.0000
  13 C13          6.0008    -0.3095     0.6160 C.2          1    LIG   0.0000
  14 S14          6.9795     0.0188     2.0066 S.3          1    LIG   0.0000
  15 C15          5.6937     0.3796     3.0969 C.2          1    LIG   0.0000
  16 C16          5.8281     0.7187     4.3719 C.2          1    LIG   0.0000
  17 C17          7.1510     0.8618     4.9486 C.ar         1    LIG   0.0000
  18 C18          7.5468     2.0819     5.4871 C.ar         1    LIG   0.0000
  19 C19          8.8154     2.2195     6.0403 C.ar         1    LIG   0.0000
  20 C20          9.6886     1.1365     6.0567 C.ar         1    LIG   0.0000
  21 C21          9.2930    -0.0843     5.5189 C.ar         1    LIG   0.0000
  22 C22          8.0250    -0.2216     4.9641 C.ar         1    LIG   0.0000
  23 O23          7.6689    -1.4178     4.4490 O.3          1    LIG   0.0000
  24 C24          4.4966     0.1839     2.3268 C.2          1    LIG   0.0000
  25 O25          3.4258     0.3618     2.8773 O.2          1    LIG   0.0000
  26 N26          4.6703    -0.2540     0.9934 N.am         1    LIG   0.0000
  27 C27          6.2210    -0.6119    -2.9686 C.ar         1    LIG   0.0000
  28 C28          7.5564    -0.9080    -3.2329 C.ar         1    LIG   0.0000
  29 C29          8.0685    -0.8988    -4.5271 C.ar         1    LIG   0.0000
  30 C30          7.2297    -0.5890    -5.5926 C.ar         1    LIG   0.0000
  31 C31          5.8930    -0.2988    -5.3446 C.ar         1    LIG   0.0000
  32 C32          5.4045    -0.3108    -4.0447 C.ar         1    LIG   0.0000
  33 C33          3.9423     0.0145    -3.8028 C.3          1    LIG   0.0000
  34 C34          3.4140    -0.8090    -2.6457 C.3          1    LIG   0.0000
  35 C35          1.2016    -0.6895    -0.0163 C.ar         1    LIG   0.0000
  36 C36         -0.0137    -0.0137    -0.0015 C.ar         1    LIG   0.0000
  37 H            3.5170    -1.6700     0.1652 H            1    LIG   0.0000
  38 H           -4.3895     1.6063     0.0447 H            1    LIG   0.0000
  39 H           -3.5977     2.7755     0.8649 H            1    LIG   0.0000
  40 H           -3.6099     2.7888    -0.7680 H            1    LIG   0.0000
  41 H            1.1552     3.1001     0.0158 H            1    LIG   0.0000
  42 H            3.2436     1.9243    -0.0092 H            1    LIG   0.0000
  43 H            5.0172     0.8759     4.9357 H            1    LIG   0.0000
  44 H            6.9191     2.8602     5.4763 H            1    LIG   0.0000
  45 H            9.1000     3.0970     6.4262 H            1    LIG   0.0000
  46 H           10.6005     1.2354     6.4551 H            1    LIG   0.0000
  47 H            9.9203    -0.8629     5.5312 H            1    LIG   0.0000
  48 H            8.3123    -2.1830     4.4705 H            1    LIG   0.0000
  49 H            8.1640    -1.1335    -2.4714 H            1    LIG   0.0000
  50 H            9.0317    -1.1131    -4.6896 H            1    LIG   0.0000
  51 H            7.5845    -0.5752    -6.5274 H            1    LIG   0.0000
  52 H            5.2812    -0.0805    -6.1048 H            1    LIG   0.0000
  53 H            3.4155    -0.1953    -4.6265 H            1    LIG   0.0000
  54 H            3.8505     0.9865    -3.5869 H            1    LIG   0.0000
  55 H            2.5004    -0.4847    -2.4004 H            1    LIG   0.0000
  56 H            3.3643    -1.7693    -2.9202 H            1    LIG   0.0000
  57 H            1.2177    -1.6893    -0.0240 H            1    LIG   0.0000
  58 H           -0.8750    -0.5218     0.0008 H            1    LIG   0.0000
@<TRIPOS>BOND
   1        1        2 1
   2        2        3 1
   3        3        4 2
   4        3        5 1
   5        5        6 ar
   6        6        7 ar
   7        7        8 ar
   8        8        9 1
   9        9       10 1
  10       10       11 2
  11       11       12 1
  12       12       13 2
  13       13       14 1
  14       14       15 1
  15       15       16 2
  16       16       17 1
  17       17       18 ar
  18       18       19 ar
  19       19       20 ar
  20       20       21 ar
  21       21       22 ar
  22       22       17 ar
  23       22       23 1
  24       15       24 1
  25       24       25 2
  26       24       26 am
  27       26       13 1
  28       26        9 1
  29       11       27 1
  30       27       28 ar
  31       28       29 ar
  32       29       30 ar
  33       30       31 ar
  34       31       32 ar
  35       32       27 ar
  36       32       33 1
  37       33       34 1
  38       34       10 1
  39        8       35 ar
  40       35       36 ar
  41       36        5 ar
  42        9       37 1
  43        1       38 1
  44        1       39 1
  45        1       40 1
  46        6       41 1
  47        7       42 1
  48       16       43 1
  49       18       44 1
  50       19       45 1
  51       20       46 1
  52       21       47 1
  53       23       48 1
  54       28       49 1
  55       29       50 1
  56       30       51 1
  57       31       52 1
  58       33       53 1
  59       33       54 1
  60       34       55 1
  61       34       56 1
  62       35       57 1
  63       36       58 1

@<TRIPOS>MOLECULE

  58   63
SMALL
USER_CHARGES
@<TRIPOS>ATOM
   1 C1          -3.5886     2.2050     0.0436 C.3          1    LIG   0.0000
   2 O2          -2.4079     1.4161     0.0284 O.3          1    LIG   0.0000
   3 C3          -1.2821     2.0859     0.0254 C.2          1    LIG   0.0000
   4 O4          -1.2978     3.2858     0.0354 O.2          1    LIG   0.0000
   5 C5          -0.0173     1.3776     0.0102 C.ar         1    LIG   0.0000
   6 C6           1.1712     2.1003     0.0072 C.ar         1    LIG   0.0000
   7 C7           2.3824     1.4162    -0.0077 C.ar         1    LIG   0.0000
   8 C8           2.3953     0.0257    -0.0205 C.ar         1    LIG   0.0000
   9 C9           3.7197    -0.7119    -0.0371 C.3          1    LIG   0.0000
  10 C10          4.3318    -0.6793    -1.4407 C.2          1    LIG   0.0000
  11 C11          5.6491    -0.5804    -1.6339 C.2          1    LIG   0.0000
  12 N12          6.5071    -0.4639    -0.5326 N.2          1    LIG   0.0000
  13 C13          6.0008    -0.3095     0.6160 C.2          1    LIG   0.0000
  14 S14          6.9795     0.0188     2.0066 S.3          1    LIG   0.0000
  15 C15          5.6937     0.3796     3.0969 C.2          1    LIG   0.0000
  16 C16          5.8281     0.7187     4.3719 C.2          1    LIG   0.0000
  17 C17          7.1510     0.8618     4.9486 C.ar         1    LIG   0.0000
  18 C18          7.5306     0.0655     6.0244 C.ar         1    LIG   0.0000
  19 C19          8.7992     0.2023     6.5777 C.ar         1    LIG   0.0000
  20 C20          9.6897     1.1345     6.0546 C.ar         1    LIG   0.0000
  21 C21          9.3108     1.9307     4.9783 C.ar         1    LIG   0.0000
  22 C22          8.0416     1.7952     4.4259 C.ar         1    LIG   0.0000
  23 O23          7.7014     2.5818     3.3825 O.3          1    LIG   0.0000
  24 C24          4.4966     0.1839     2.3268 C.2          1    LIG   0.0000
  25 O25          3.4258     0.3618     2.8773 O.2          1    LIG   0.0000
  26 N26          4.6703    -0.2540     0.9934 N.am         1    LIG   0.0000
  27 C27          6.2210    -0.6119    -2.9686 C.ar         1    LIG   0.0000
  28 C28          7.5564    -0.9080    -3.2329 C.ar         1    LIG   0.0000
  29 C29          8.0685    -0.8988    -4.5271 C.ar         1    LIG   0.0000
  30 C30          7.2297    -0.5890    -5.5926 C.ar         1    LIG   0.0000
  31 C31          5.8930    -0.2988    -5.3446 C.ar         1    LIG   0.0000
  32 C32          5.4045    -0.3108    -4.0447 C.ar         1    LIG   0.0000
  33 C33          3.9423     0.0145    -3.8028 C.3          1    LIG   0.0000
  34 C34          3.4140    -0.8090    -2.6457 C.3          1    LIG   0.0000
  35 C35          1.2016    -0.6895    -0.0163 C.ar         1    LIG   0.0000
  36 C36         -0.0137    -0.0137    -0.0015 C.ar         1    LIG   0.0000
  37 H            3.5170    -1.6700     0.1652 H            1    LIG   0.0000
  38 H           -4.3895     1.6063     0.0447 H            1    LIG   0.0000
  39 H           -3.5977     2.7755     0.8649 H            1    LIG   0.0000
  40 H           -3.6099     2.7888    -0.7680 H            1    LIG   0.0000
  41 H            1.1552     3.1001     0.0158 H            1    LIG   0.0000
  42 H            3.2436     1.9243    -0.0092 H            1    LIG   0.0000
  43 H            5.0172     0.8759     4.9357 H            1    LIG   0.0000
  44 H            6.8911    -0.6054     6.3999 H            1    LIG   0.0000
  45 H            9.0714    -0.3695     7.3516 H            1    LIG   0.0000
  46 H           10.6021     1.2323     6.4522 H            1    LIG   0.0000
  47 H            9.9510     2.6003     4.6018 H            1    LIG   0.0000
  48 H            8.3566     3.2460     3.0225 H            1    LIG   0.0000
  49 H            8.1640    -1.1335    -2.4714 H            1    LIG   0.0000
  50 H            9.0317    -1.1131    -4.6896 H            1    LIG   0.0000
  51 H            7.5845    -0.5752    -6.5274 H            1    LIG   0.0000
  52 H            5.2812    -0.0805    -6.1048 H            1    LIG   0.0000
  53 H            3.4155    -0.1953    -4.6265 H            1    LIG   0.0000
  54 H            3.8505     0.9865    -3.5869 H            1    LIG   0.0000
  55 H            2.5004    -0.4847    -2.4004 H            1    LIG   0.0000
  56 H            3.3643    -1.7693    -2.9202 H            1    LIG   0.0000
  57 H            1.2177    -1.6893    -0.0240 H            1    LIG   0.0000
  58 H           -0.8750    -0.5218     0.0008 H            1    LIG   0.0000
@<TRIPOS>BOND
   1        1        2 1
   2        2        3 1
   3        3        4 2
   4        3        5 1
   5        5        6 ar
   6        6        7 ar
   7        7        8 ar
   8        8        9 1
   9        9       10 1
  10       10       11 2
  11       11       12 1
  12       12       13 2
  13       13       14 1
  14       14       15 1
  15       15       16 2
  16       16       17 1
  17       17       18 ar
  18       18       19 ar
  19       19       20 ar
  20       20       21 ar
  21       21       22 ar
  22       22       17 ar
  23       22       23 1
  24       15       24 1
  25       24       25 2
  26       24       26 am
  27       26       13 1
  28       26        9 1
  29       11       27 1
  30       27       28 ar
  31       28       29 ar
  32       29       30 ar
  33       30       31 ar
  34       31       32 ar
  35       32       27 ar
  36       32       33 1
  37       33       34 1
  38       34       10 1
  39        8       35 ar
  40       35       36 ar
  41       36        5 ar
  42        9       37 1
  43        1       38 1
  44        1       39 1
  45        1       40 1
  46        6       41 1
  47        7       42 1
  48       16       43 1
  49       18       44 1
  50       19       45 1
  51       20       46 1
  52       21       47 1
  53       23       48 1
  54       28       49 1
  55       29       50 1
  56       30       51 1
  57       31       52 1
  58       33       53 1
  59       33       54 1
  60       34       55 1
  61       34       56 1
  62       35       57 1
  63       36       58 1

@<TRIPOS>MOLECULE

  58   63
SMALL
USER_CHARGES
@<TRIPOS>ATOM
   1 C1          -2.5887     3.9902     0.0507 C.3          1    LIG   0.0000
   2 O2          -1.2992     3.3957     0.0363 O.3          1    LIG   0.0000
   3 C3          -1.2821     2.0859     0.0254 C.2          1    LIG   0.0000
   4 O4          -2.3134     1.4724     0.0281 O.2          1    LIG   0.0000
   5 C5          -0.0173     1.3776     0.0102 C.ar         1    LIG   0.0000
   6 C6           1.1712     2.1003     0.0072 C.ar         1    LIG   0.0000
   7 C7           2.3824     1.4162    -0.0077 C.ar         1    LIG   0.0000
   8 C8           2.3953     0.0257    -0.0205 C.ar         1    LIG   0.0000
   9 C9           3.7267    -0.7158    -0.0372 C.3          1    LIG   0.0000
  10 C10          4.2912    -0.7580    -1.4494 C.2          1    LIG   0.0000
  11 C11          5.6052    -0.6183    -1.5956 C.2          1    LIG   0.0000
  12 N12          6.4788    -0.3679    -0.5385 N.2          1    LIG   0.0000
  13 C13          5.9684    -0.1979     0.5997 C.2          1    LIG   0.0000
  14 S14          7.0315     0.1924     1.9052 S.3          1    LIG   0.0000
  15 C15          5.7520     0.5193     3.0334 C.2          1    LIG   0.0000
  16 C16          5.8913     0.9334     4.2755 C.2          1    LIG   0.0000
  17 C17          7.2149     1.1855     4.8117 C.ar         1    LIG   0.0000
  18 C18          8.3375     0.9902     4.0135 C.ar         1    LIG   0.0000
  19 C19          9.6071     1.2319     4.5273 C.ar         1    LIG   0.0000
  20 C20          9.7549     1.6705     5.8394 C.ar         1    LIG   0.0000
  21 C21          8.6324     1.8665     6.6379 C.ar         1    LIG   0.0000
  22 C22          7.3628     1.6233     6.1248 C.ar         1    LIG   0.0000
  23 O23          6.2921     1.8215     6.9231 O.3          1    LIG   0.0000
  24 C24          4.5211     0.2253     2.3526 C.2          1    LIG   0.0000
  25 O25          3.4664     0.3163     2.9598 O.2          1    LIG   0.0000
  26 N26          4.6503    -0.2187     1.0192 N.am         1    LIG   0.0000
  27 C27          6.1743    -0.7112    -2.9268 C.ar         1    LIG   0.0000
  28 C28          7.4876    -0.3174    -3.1651 C.ar         1    LIG   0.0000
  29 C29          8.0615    -0.3817    -4.4305 C.ar         1    LIG   0.0000
  30 C30          7.3015    -0.8511    -5.4964 C.ar         1    LIG   0.0000
  31 C31          5.9876    -1.2553    -5.2782 C.ar         1    LIG   0.0000
  32 C32          5.4334    -1.1915    -4.0040 C.ar         1    LIG   0.0000
  33 C33          4.0005    -1.6641    -3.8003 C.3          1    LIG   0.0000
  34 C34          3.3431    -0.9511    -2.6282 C.3          1    LIG   0.0000
  35 C35          1.2016    -0.6895    -0.0163 C.ar         1    LIG   0.0000
  36 C36         -0.0137    -0.0137    -0.0015 C.ar         1    LIG   0.0000
  37 H            3.5171    -1.6634     0.2040 H            1    LIG   0.0000
  38 H           -2.4966     4.9859     0.0582 H            1    LIG   0.0000
  39 H           -3.0949     3.7083    -0.7643 H            1    LIG   0.0000
  40 H           -3.0827     3.6950     0.8686 H            1    LIG   0.0000
  41 H            1.1552     3.1001     0.0158 H            1    LIG   0.0000
  42 H            3.2436     1.9243    -0.0092 H            1    LIG   0.0000
  43 H            5.0843     1.0740     4.8491 H            1    LIG   0.0000
  44 H            8.2315     0.6760     3.0701 H            1    LIG   0.0000
  45 H           10.4138     1.0905     3.9536 H            1    LIG   0.0000
  46 H           10.6678     1.8448     6.2085 H            1    LIG   0.0000
  47 H            8.7385     2.1824     7.5808 H            1    LIG   0.0000
  48 H            6.4209     2.1364     7.8635 H            1    LIG   0.0000
  49 H            8.0367     0.0228    -2.4016 H            1    LIG   0.0000
  50 H            9.0087    -0.0939    -4.5721 H            1    LIG   0.0000
  51 H            7.6965    -0.8980    -6.4139 H            1    LIG   0.0000
  52 H            5.4385    -1.5937    -6.0424 H            1    LIG   0.0000
  53 H            4.0046    -2.6481    -3.6220 H            1    LIG   0.0000
  54 H            3.4752    -1.4780    -4.6306 H            1    LIG   0.0000
  55 H            3.0282    -0.0532    -2.9358 H            1    LIG   0.0000
  56 H            2.5597    -1.4926    -2.3231 H            1    LIG   0.0000
  57 H            1.2177    -1.6893    -0.0240 H            1    LIG   0.0000
  58 H           -0.8750    -0.5218     0.0008 H            1    LIG   0.0000
@<TRIPOS>BOND
   1        1        2 1
   2        2        3 1
   3        3        4 2
   4        3        5 1
   5        5        6 ar
   6        6        7 ar
   7        7        8 ar
   8        8        9 1
   9        9       10 1
  10       10       11 2
  11       11       12 1
  12       12       13 2
  13       13       14 1
  14       14       15 1
  15       15       16 2
  16       16       17 1
  17       17       18 ar
  18       18       19 ar
  19       19       20 ar
  20       20       21 ar
  21       21       22 ar
  22       22       17 ar
  23       22       23 1
  24       15       24 1
  25       24       25 2
  26       24       26 am
  27       26       13 1
  28       26        9 1
  29       11       27 1
  30       27       28 ar
  31       28       29 ar
  32       29       30 ar
  33       30       31 ar
  34       31       32 ar
  35       32       27 ar
  36       32       33 1
  37       33       34 1
  38       34       10 1
  39        8       35 ar
  40       35       36 ar
  41       36        5 ar
  42        9       37 1
  43        1       38 1
  44        1       39 1
  45        1       40 1
  46        6       41 1
  47        7       42 1
  48       16       43 1
  49       18       44 1
  50       19       45 1
  51       20       46 1
  52       21       47 1
  53       23       48 1
  54       28       49 1
  55       29       50 1
  56       30       51 1
  57       31       52 1
  58       33       53 1
  59       33       54 1
  60       34       55 1
  61       34       56 1
  62       35       57 1
  63       36       58 1

@<TRIPOS>MOLECULE

  58   63
SMALL
USER_CHARGES
@<TRIPOS>ATOM
   1 C1          -2.5887     3.9902     0.0507 C.3          1    LIG   0.0000
   2 O2          -1.2992     3.3957     0.0363 O.3          1    LIG   0.0000
   3 C3          -1.2821     2.0859     0.0254 C.2          1    LIG   0.0000
   4 O4          -2.3134     1.4724     0.0281 O.2          1    LIG   0.0000
   5 C5          -0.0173     1.3776     0.0102 C.ar         1    LIG   0.0000
   6 C6           1.1712     2.1003     0.0072 C.ar         1    LIG   0.0000
   7 C7           2.3824     1.4162    -0.0077 C.ar         1    LIG   0.0000
   8 C8           2.3953     0.0257    -0.0205 C.ar         1    LIG   0.0000
   9 C9           3.7267    -0.7158    -0.0372 C.3          1    LIG   0.0000
  10 C10          4.2912    -0.7580    -1.4494 C.2          1    LIG   0.0000
  11 C11          5.6052    -0.6183    -1.5956 C.2          1    LIG   0.0000
  12 N12          6.4788    -0.3679    -0.5385 N.2          1    LIG   0.0000
  13 C13          5.9684    -0.1979     0.5997 C.2          1    LIG   0.0000
  14 S14          7.0315     0.1924     1.9052 S.3          1    LIG   0.0000
  15 C15          5.7520     0.5193     3.0334 C.2          1    LIG   0.0000
  16 C16          5.8913     0.9334     4.2755 C.2          1    LIG   0.0000
  17 C17          7.2149     1.1855     4.8117 C.ar         1    LIG   0.0000
  18 C18          7.5482     2.4548     5.2732 C.ar         1    LIG   0.0000
  19 C19          8.8175     2.6970     5.7876 C.ar         1    LIG   0.0000
  20 C20          9.7539     1.6696     5.8422 C.ar         1    LIG   0.0000
  21 C21          9.4209     0.3996     5.3813 C.ar         1    LIG   0.0000
  22 C22          8.1522     0.1577     4.8653 C.ar         1    LIG   0.0000
  23 O23          7.8575    -1.0843     4.4248 O.3          1    LIG   0.0000
  24 C24          4.5211     0.2253     2.3526 C.2          1    LIG   0.0000
  25 O25          3.4664     0.3163     2.9598 O.2          1    LIG   0.0000
  26 N26          4.6503    -0.2187     1.0192 N.am         1    LIG   0.0000
  27 C27          6.1743    -0.7112    -2.9268 C.ar         1    LIG   0.0000
  28 C28          7.4876    -0.3174    -3.1651 C.ar         1    LIG   0.0000
  29 C29          8.0615    -0.3817    -4.4305 C.ar         1    LIG   0.0000
  30 C30          7.3015    -0.8511    -5.4964 C.ar         1    LIG   0.0000
  31 C31          5.9876    -1.2553    -5.2782 C.ar         1    LIG   0.0000
  32 C32          5.4334    -1.1915    -4.0040 C.ar         1    LIG   0.0000
  33 C33          4.0005    -1.6641    -3.8003 C.3          1    LIG   0.0000
  34 C34          3.3431    -0.9511    -2.6282 C.3          1    LIG   0.0000
  35 C35          1.2016    -0.6895    -0.0163 C.ar         1    LIG   0.0000
  36 C36         -0.0137    -0.0137    -0.0015 C.ar         1    LIG   0.0000
  37 H            3.5171    -1.6634     0.2040 H            1    LIG   0.0000
  38 H           -2.4966     4.9859     0.0582 H            1    LIG   0.0000
  39 H           -3.0949     3.7083    -0.7643 H            1    LIG   0.0000
  40 H           -3.0827     3.6950     0.8686 H            1    LIG   0.0000
  41 H            1.1552     3.1001     0.0158 H            1    LIG   0.0000
  42 H            3.2436     1.9243    -0.0092 H            1    LIG   0.0000
  43 H            5.0843     1.0740     4.8491 H            1    LIG   0.0000
  44 H            6.8750     3.1933     5.2351 H            1    LIG   0.0000
  45 H            9.0571     3.6098     6.1183 H            1    LIG   0.0000
  46 H           10.6663     1.8437     6.2126 H            1    LIG   0.0000
  47 H           10.0937    -0.3391     5.4210 H            1    LIG   0.0000
  48 H            8.5458    -1.8081     4.4726 H            1    LIG   0.0000
  49 H            8.0367     0.0228    -2.4016 H            1    LIG   0.0000
  50 H            9.0087    -0.0939    -4.5721 H            1    LIG   0.0000
  51 H            7.6965    -0.8980    -6.4139 H            1    LIG   0.0000
  52 H            5.4385    -1.5937    -6.0424 H            1    LIG   0.0000
  53 H            4.0046    -2.6481    -3.6220 H            1    LIG   0.0000
  54 H            3.4752    -1.4780    -4.6306 H            1    LIG   0.0000
  55 H            3.0282    -0.0532    -2.9358 H            1    LIG   0.0000
  56 H            2.5597    -1.4926    -2.3231 H            1    LIG   0.0000
  57 H            1.2177    -1.6893    -0.0240 H            1    LIG   0.0000
  58 H           -0.8750    -0.5218     0.0008 H            1    LIG   0.0000
@<TRIPOS>BOND
   1        1        2 1
   2        2        3 1
   3        3        4 2
   4        3        5 1
   5        5        6 ar
   6        6        7 ar
   7        7        8 ar
   8        8        9 1
   9        9       10 1
  10       10       11 2
  11       11       12 1
  12       12       13 2
  13       13       14 1
  14       14       15 1
  15       15       16 2
  16       16       17 1
  17       17       18 ar
  18       18       19 ar
  19       19       20 ar
  20       20       21 ar
  21       21       22 ar
  22       22       17 ar
  23       22       23 1
  24       15       24 1
  25       24       25 2
  26       24       26 am
  27       26       13 1
  28       26        9 1
  29       11       27 1
  30       27       28 ar
  31       28       29 ar
  32       29       30 ar
  33       30       31 ar
  34       31       32 ar
  35       32       27 ar
  36       32       33 1
  37       33       34 1
  38       34       10 1
  39        8       35 ar
  40       35       36 ar
  41       36        5 ar
  42        9       37 1
  43        1       38 1
  44        1       39 1
  45        1       40 1
  46        6       41 1
  47        7       42 1
  48       16       43 1
  49       18       44 1
  50       19       45 1
  51       20       46 1
  52       21       47 1
  53       23       48 1
  54       28       49 1
  55       29       50 1
  56       30       51 1
  57       31       52 1
  58       33       53 1
  59       33       54 1
  60       34       55 1
  61       34       56 1
  62       35       57 1
  63       36       58 1

@<TRIPOS>MOLECULE

  58   63
SMALL
USER_CHARGES
@<TRIPOS>ATOM
   1 C1          -2.5887     3.9902     0.0507 C.3          1    LIG   0.0000
   2 O2          -1.2992     3.3957     0.0363 O.3          1    LIG   0.0000
   3 C3          -1.2821     2.0859     0.0254 C.2          1    LIG   0.0000
   4 O4          -2.3134     1.4724     0.0281 O.2          1    LIG   0.0000
   5 C5          -0.0173     1.3776     0.0102 C.ar         1    LIG   0.0000
   6 C6           1.1712     2.1003     0.0072 C.ar         1    LIG   0.0000
   7 C7           2.3824     1.4162    -0.0077 C.ar         1    LIG   0.0000
   8 C8           2.3953     0.0257    -0.0205 C.ar         1    LIG   0.0000
   9 C9           3.7267    -0.7158    -0.0372 C.3          1    LIG   0.0000
  10 C10          4.2912    -0.7580    -1.4494 C.2          1    LIG   0.0000
  11 C11          5.6052    -0.6183    -1.5956 C.2          1    LIG   0.0000
  12 N12          6.4788    -0.3679    -0.5385 N.2          1    LIG   0.0000
  13 C13          5.9684    -0.1979     0.5997 C.2          1    LIG   0.0000
  14 S14          7.0315     0.1924     1.9052 S.3          1    LIG   0.0000
  15 C15          5.7520     0.5193     3.0334 C.2          1    LIG   0.0000
  16 C16          5.8913     0.9334     4.2755 C.2          1    LIG   0.0000
  17 C17          7.2149     1.1855     4.8117 C.ar         1    LIG   0.0000
  18 C18          7.6635     0.4741     5.9199 C.ar         1    LIG   0.0000
  19 C19          8.9329     0.7155     6.4344 C.ar         1    LIG   0.0000
  20 C20          9.7551     1.6675     5.8402 C.ar         1    LIG   0.0000
  21 C21          9.3072     2.3789     4.7314 C.ar         1    LIG   0.0000
  22 C22          8.0372     2.1388     4.2177 C.ar         1    LIG   0.0000
  23 O23          7.6292     2.8447     3.1414 O.3          1    LIG   0.0000
  24 C24          4.5211     0.2253     2.3526 C.2          1    LIG   0.0000
  25 O25          3.4664     0.3163     2.9598 O.2          1    LIG   0.0000
  26 N26          4.6503    -0.2187     1.0192 N.am         1    LIG   0.0000
  27 C27          6.1743    -0.7112    -2.9268 C.ar         1    LIG   0.0000
  28 C28          7.4876    -0.3174    -3.1651 C.ar         1    LIG   0.0000
  29 C29          8.0615    -0.3817    -4.4305 C.ar         1    LIG   0.0000
  30 C30          7.3015    -0.8511    -5.4964 C.ar         1    LIG   0.0000
  31 C31          5.9876    -1.2553    -5.2782 C.ar         1    LIG   0.0000
  32 C32          5.4334    -1.1915    -4.0040 C.ar         1    LIG   0.0000
  33 C33          4.0005    -1.6641    -3.8003 C.3          1    LIG   0.0000
  34 C34          3.3431    -0.9511    -2.6282 C.3          1    LIG   0.0000
  35 C35          1.2016    -0.6895    -0.0163 C.ar         1    LIG   0.0000
  36 C36         -0.0137    -0.0137    -0.0015 C.ar         1    LIG   0.0000
  37 H            3.5171    -1.6634     0.2040 H            1    LIG   0.0000
  38 H           -2.4966     4.9859     0.0582 H            1    LIG   0.0000
  39 H           -3.0949     3.7083    -0.7643 H            1    LIG   0.0000
  40 H           -3.0827     3.6950     0.8686 H            1    LIG   0.0000
  41 H            1.1552     3.1001     0.0158 H            1    LIG   0.0000
  42 H            3.2436     1.9243    -0.0092 H            1    LIG   0.0000
  43 H            5.0843     1.0740     4.8491 H            1    LIG   0.0000
  44 H            7.0731    -0.2110     6.3466 H            1    LIG   0.0000
  45 H            9.2546     0.2047     7.2316 H            1    LIG   0.0000
  46 H           10.6680     1.8405     6.2099 H            1    LIG   0.0000
  47 H            9.8984     3.0627     4.3038 H            1    LIG   0.0000
  48 H            8.2360     3.5249     2.7302 H            1    LIG   0.0000
  49 H            8.0367     0.0228    -2.4016 H            1    LIG   0.0000
  50 H            9.0087    -0.0939    -4.5721 H            1    LIG   0.0000
  51 H            7.6965    -0.8980    -6.4139 H            1    LIG   0.0000
  52 H            5.4385    -1.5937    -6.0424 H            1    LIG   0.0000
  53 H            4.0046    -2.6481    -3.6220 H            1    LIG   0.0000
  54 H            3.4752    -1.4780    -4.6306 H            1    LIG   0.0000
  55 H            3.0282    -0.0532    -2.9358 H            1    LIG   0.0000
  56 H            2.5597    -1.4926    -2.3231 H            1    LIG   0.0000
  57 H            1.2177    -1.6893    -0.0240 H            1    LIG   0.0000
  58 H           -0.8750    -0.5218     0.0008 H            1    LIG   0.0000
@<TRIPOS>BOND
   1        1        2 1
   2        2        3 1
   3        3        4 2
   4        3        5 1
   5        5        6 ar
   6        6        7 ar
   7        7        8 ar
   8        8        9 1
   9        9       10 1
  10       10       11 2
  11       11       12 1
  12       12       13 2
  13       13       14 1
  14       14       15 1
  15       15       16 2
  16       16       17 1
  17       17       18 ar
  18       18       19 ar
  19       19       20 ar
  20       20       21 ar
  21       21       22 ar
  22       22       17 ar
  23       22       23 1
  24       15       24 1
  25       24       25 2
  26       24       26 am
  27       26       13 1
  28       26        9 1
  29       11       27 1
  30       27       28 ar
  31       28       29 ar
  32       29       30 ar
  33       30       31 ar
  34       31       32 ar
  35       32       27 ar
  36       32       33 1
  37       33       34 1
  38       34       10 1
  39        8       35 ar
  40       35       36 ar
  41       36        5 ar
  42        9       37 1
  43        1       38 1
  44        1       39 1
  45        1       40 1
  46        6       41 1
  47        7       42 1
  48       16       43 1
  49       18       44 1
  50       19       45 1
  51       20       46 1
  52       21       47 1
  53       23       48 1
  54       28       49 1
  55       29       50 1
  56       30       51 1
  57       31       52 1
  58       33       53 1
  59       33       54 1
  60       34       55 1
  61       34       56 1
  62       35       57 1
  63       36       58 1

@<TRIPOS>MOLECULE

  58   63
SMALL
USER_CHARGES
@<TRIPOS>ATOM
   1 C1          -2.5887     3.9902     0.0507 C.3          1    LIG   0.0000
   2 O2          -1.2992     3.3957     0.0363 O.3          1    LIG   0.0000
   3 C3          -1.2821     2.0859     0.0254 C.2          1    LIG   0.0000
   4 O4          -2.3134     1.4724     0.0281 O.2          1    LIG   0.0000
   5 C5          -0.0173     1.3776     0.0102 C.ar         1    LIG   0.0000
   6 C6           1.1712     2.1003     0.0072 C.ar         1    LIG   0.0000
   7 C7           2.3824     1.4162    -0.0077 C.ar         1    LIG   0.0000
   8 C8           2.3953     0.0257    -0.0205 C.ar         1    LIG   0.0000
   9 C9           3.7257    -0.7152    -0.0372 C.3          1    LIG   0.0000
  10 C10          4.3062    -0.9040     1.3437 C.2          1    LIG   0.0000
  11 C11          4.8977    -2.0226     1.7006 C.2          1    LIG   0.0000
  12 N12          4.9881    -3.0816     0.7854 N.2          1    LIG   0.0000
  13 C13          4.4523    -2.9237    -0.3386 C.2          1    LIG   0.0000
  14 S14          4.5212    -4.2803    -1.4004 S.3          1    LIG   0.0000
  15 C15          3.5396    -3.6000    -2.6454 C.2          1    LIG   0.0000
  16 C16          3.1880    -4.1786    -3.7871 C.2          1    LIG   0.0000
  17 C17          3.6391    -5.5238    -4.0872 C.ar         1    LIG   0.0000
  18 C18          5.0004    -5.8001    -4.1637 C.ar         1    LIG   0.0000
  19 C19          5.4334    -7.0901    -4.4515 C.ar         1    LIG   0.0000
  20 C20          4.5053    -8.1050    -4.6615 C.ar         1    LIG   0.0000
  21 C21          3.1436    -7.8293    -4.5845 C.ar         1    LIG   0.0000
  22 C22          2.7104    -6.5391    -4.2984 C.ar         1    LIG   0.0000
  23 O23          1.3830    -6.3010    -4.2307 O.3          1    LIG   0.0000
  24 C24          3.1956    -2.2797    -2.1677 C.2          1    LIG   0.0000
  25 O25          2.4926    -1.5341    -2.8262 O.2          1    LIG   0.0000
  26 N26          3.7241    -1.9081    -0.9265 N.am         1    LIG   0.0000
  27 C27          5.4528    -2.1883     3.0352 C.ar         1    LIG   0.0000
  28 C28          6.4147    -3.1414     3.3507 C.ar         1    LIG   0.0000
  29 C29          6.8957    -3.2640     4.6506 C.ar         1    LIG   0.0000
  30 C30          6.4140    -2.4252     5.6496 C.ar         1    LIG   0.0000
  31 C31          5.4538    -1.4683     5.3386 C.ar         1    LIG   0.0000
  32 C32          4.9760    -1.3491     4.0381 C.ar         1    LIG   0.0000
  33 C33          3.9310    -0.2873     3.7317 C.3          1    LIG   0.0000
  34 C34          4.1635     0.2473     2.3279 C.3          1    LIG   0.0000
  35 C35          1.2016    -0.6895    -0.0163 C.ar         1    LIG   0.0000
  36 C36         -0.0137    -0.0137    -0.0015 C.ar         1    LIG   0.0000
  37 H            4.3551    -0.0785    -0.4826 H            1    LIG   0.0000
  38 H           -2.4966     4.9859     0.0582 H            1    LIG   0.0000
  39 H           -3.0949     3.7083    -0.7643 H            1    LIG   0.0000
  40 H           -3.0827     3.6950     0.8686 H            1    LIG   0.0000
  41 H            1.1552     3.1001     0.0158 H            1    LIG   0.0000
  42 H            3.2436     1.9243    -0.0092 H            1    LIG   0.0000
  43 H            2.6122    -3.6869    -4.4402 H            1    LIG   0.0000
  44 H            5.6678    -5.0710    -4.0118 H            1    LIG   0.0000
  45 H            6.4120    -7.2881    -4.5075 H            1    LIG   0.0000
  46 H            4.8168    -9.0326    -4.8678 H            1    LIG   0.0000
  47 H            2.4765    -8.5589    -4.7348 H            1    LIG   0.0000
  48 H            0.7331    -7.0449    -4.3858 H            1    LIG   0.0000
  49 H            6.7649    -3.7458     2.6351 H            1    LIG   0.0000
  50 H            7.5866    -3.9542     4.8660 H            1    LIG   0.0000
  51 H            6.7557    -2.5095     6.5856 H            1    LIG   0.0000
  52 H            5.1051    -0.8627     6.0540 H            1    LIG   0.0000
  53 H            4.0087     0.4597     4.3919 H            1    LIG   0.0000
  54 H            3.0174    -0.6898     3.7898 H            1    LIG   0.0000
  55 H            3.3873     0.8175     2.0589 H            1    LIG   0.0000
  56 H            4.9995     0.7960     2.3178 H            1    LIG   0.0000
  57 H            1.2177    -1.6893    -0.0240 H            1    LIG   0.0000
  58 H           -0.8750    -0.5218     0.0008 H            1    LIG   0.0000
@<TRIPOS>BOND
   1        1        2 1
   2        2        3 1
   3        3        4 2
   4        3        5 1
   5        5        6 ar
   6        6        7 ar
   7        7        8 ar
   8        8        9 1
   9        9       10 1
  10       10       11 2
  11       11       12 1
  12       12       13 2
  13       13       14 1
  14       14       15 1
  15       15       16 2
  16       16       17 1
  17       17       18 ar
  18       18       19 ar
  19       19       20 ar
  20       20       21 ar
  21       21       22 ar
  22       22       17 ar
  23       22       23 1
  24       15       24 1
  25       24       25 2
  26       24       26 am
  27       26       13 1
  28       26        9 1
  29       11       27 1
  30       27       28 ar
  31       28       29 ar
  32       29       30 ar
  33       30       31 ar
  34       31       32 ar
  35       32       27 ar
  36       32       33 1
  37       33       34 1
  38       34       10 1
  39        8       35 ar
  40       35       36 ar
  41       36        5 ar
  42        9       37 1
  43        1       38 1
  44        1       39 1
  45        1       40 1
  46        6       41 1
  47        7       42 1
  48       16       43 1
  49       18       44 1
  50       19       45 1
  51       20       46 1
  52       21       47 1
  53       23       48 1
  54       28       49 1
  55       29       50 1
  56       30       51 1
  57       31       52 1
  58       33       53 1
  59       33       54 1
  60       34       55 1
  61       34       56 1
  62       35       57 1
  63       36       58 1

@<TRIPOS>MOLECULE

  58   63
SMALL
USER_CHARGES
@<TRIPOS>ATOM
   1 C1          -2.5887     3.9902     0.0507 C.3          1    LIG   0.0000
   2 O2          -1.2992     3.3957     0.0363 O.3          1    LIG   0.0000
   3 C3          -1.2821     2.0859     0.0254 C.2          1    LIG   0.0000
   4 O4          -2.3134     1.4724     0.0281 O.2          1    LIG   0.0000
   5 C5          -0.0173     1.3776     0.0102 C.ar         1    LIG   0.0000
   6 C6           1.1712     2.1003     0.0072 C.ar         1    LIG   0.0000
   7 C7           2.3824     1.4162    -0.0077 C.ar         1    LIG   0.0000
   8 C8           2.3953     0.0257    -0.0205 C.ar         1    LIG   0.0000
   9 C9           3.7257    -0.7152    -0.0372 C.3          1    LIG   0.0000
  10 C10          4.3062    -0.9040     1.3437 C.2          1    LIG   0.0000
  11 C11          4.8977    -2.0226     1.7006 C.2          1    LIG   0.0000
  12 N12          4.9881    -3.0816     0.7854 N.2          1    LIG   0.0000
  13 C13          4.4523    -2.9237    -0.3386 C.2          1    LIG   0.0000
  14 S14          4.5212    -4.2803    -1.4004 S.3          1    LIG   0.0000
  15 C15          3.5396    -3.6000    -2.6454 C.2          1    LIG   0.0000
  16 C16          3.1880    -4.1786    -3.7871 C.2          1    LIG   0.0000
  17 C17          3.6391    -5.5238    -4.0872 C.ar         1    LIG   0.0000
  18 C18          3.2948    -6.5768    -3.2458 C.ar         1    LIG   0.0000
  19 C19          3.7271    -7.8670    -3.5333 C.ar         1    LIG   0.0000
  20 C20          4.5028    -8.1054    -4.6634 C.ar         1    LIG   0.0000
  21 C21          4.8469    -7.0527    -5.5057 C.ar         1    LIG   0.0000
  22 C22          4.4161    -5.7621    -5.2174 C.ar         1    LIG   0.0000
  23 O23          4.7659    -4.7603    -6.0523 O.3          1    LIG   0.0000
  24 C24          3.1956    -2.2797    -2.1677 C.2          1    LIG   0.0000
  25 O25          2.4926    -1.5341    -2.8262 O.2          1    LIG   0.0000
  26 N26          3.7241    -1.9081    -0.9265 N.am         1    LIG   0.0000
  27 C27          5.4528    -2.1883     3.0352 C.ar         1    LIG   0.0000
  28 C28          6.4147    -3.1414     3.3507 C.ar         1    LIG   0.0000
  29 C29          6.8957    -3.2640     4.6506 C.ar         1    LIG   0.0000
  30 C30          6.4140    -2.4252     5.6496 C.ar         1    LIG   0.0000
  31 C31          5.4538    -1.4683     5.3386 C.ar         1    LIG   0.0000
  32 C32          4.9760    -1.3491     4.0381 C.ar         1    LIG   0.0000
  33 C33          3.9310    -0.2873     3.7317 C.3          1    LIG   0.0000
  34 C34          4.1635     0.2473     2.3279 C.3          1    LIG   0.0000
  35 C35          1.2016    -0.6895    -0.0163 C.ar         1    LIG   0.0000
  36 C36         -0.0137    -0.0137    -0.0015 C.ar         1    LIG   0.0000
  37 H            4.3551    -0.0785    -0.4826 H            1    LIG   0.0000
  38 H           -2.4966     4.9859     0.0582 H            1    LIG   0.0000
  39 H           -3.0949     3.7083    -0.7643 H            1    LIG   0.0000
  40 H           -3.0827     3.6950     0.8686 H            1    LIG   0.0000
  41 H            1.1552     3.1001     0.0158 H            1    LIG   0.0000
  42 H            3.2436     1.9243    -0.0092 H            1    LIG   0.0000
  43 H            2.6122    -3.6869    -4.4402 H            1    LIG   0.0000
  44 H            2.7364    -6.4059    -2.4340 H            1    LIG   0.0000
  45 H            3.4804    -8.6235    -2.9276 H            1    LIG   0.0000
  46 H            4.8131    -9.0333    -4.8703 H            1    LIG   0.0000
  47 H            5.4039    -7.2240    -6.3183 H            1    LIG   0.0000
  48 H            5.3247    -4.9536    -6.8588 H            1    LIG   0.0000
  49 H            6.7649    -3.7458     2.6351 H            1    LIG   0.0000
  50 H            7.5866    -3.9542     4.8660 H            1    LIG   0.0000
  51 H            6.7557    -2.5095     6.5856 H            1    LIG   0.0000
  52 H            5.1051    -0.8627     6.0540 H            1    LIG   0.0000
  53 H            4.0087     0.4597     4.3919 H            1    LIG   0.0000
  54 H            3.0174    -0.6898     3.7898 H            1    LIG   0.0000
  55 H            3.3873     0.8175     2.0589 H            1    LIG   0.0000
  56 H            4.9995     0.7960     2.3178 H            1    LIG   0.0000
  57 H            1.2177    -1.6893    -0.0240 H            1    LIG   0.0000
  58 H           -0.8750    -0.5218     0.0008 H            1    LIG   0.0000
@<TRIPOS>BOND
   1        1        2 1
   2        2        3 1
   3        3        4 2
   4        3        5 1
   5        5        6 ar
   6        6        7 ar
   7        7        8 ar
   8        8        9 1
   9        9       10 1
  10       10       11 2
  11       11       12 1
  12       12       13 2
  13       13       14 1
  14       14       15 1
  15       15       16 2
  16       16       17 1
  17       17       18 ar
  18       18       19 ar
  19       19       20 ar
  20       20       21 ar
  21       21       22 ar
  22       22       17 ar
  23       22       23 1
  24       15       24 1
  25       24       25 2
  26       24       26 am
  27       26       13 1
  28       26        9 1
  29       11       27 1
  30       27       28 ar
  31       28       29 ar
  32       29       30 ar
  33       30       31 ar
  34       31       32 ar
  35       32       27 ar
  36       32       33 1
  37       33       34 1
  38       34       10 1
  39        8       35 ar
  40       35       36 ar
  41       36        5 ar
  42        9       37 1
  43        1       38 1
  44        1       39 1
  45        1       40 1
  46        6       41 1
  47        7       42 1
  48       16       43 1
  49       18       44 1
  50       19       45 1
  51       20       46 1
  52       21       47 1
  53       23       48 1
  54       28       49 1
  55       29       50 1
  56       30       51 1
  57       31       52 1
  58       33       53 1
  59       33       54 1
  60       34       55 1
  61       34       56 1
  62       35       57 1
  63       36       58 1

@<TRIPOS>MOLECULE

  58   63
SMALL
USER_CHARGES
@<TRIPOS>ATOM
   1 C1          -2.5887     3.9902     0.0507 C.3          1    LIG   0.0000
   2 O2          -1.2992     3.3957     0.0363 O.3          1    LIG   0.0000
   3 C3          -1.2821     2.0859     0.0254 C.2          1    LIG   0.0000
   4 O4          -2.3134     1.4724     0.0281 O.2          1    LIG   0.0000
   5 C5          -0.0173     1.3776     0.0102 C.ar         1    LIG   0.0000
   6 C6           1.1712     2.1003     0.0072 C.ar         1    LIG   0.0000
   7 C7           2.3824     1.4162    -0.0077 C.ar         1    LIG   0.0000
   8 C8           2.3953     0.0257    -0.0205 C.ar         1    LIG   0.0000
   9 C9           3.7202    -0.7122    -0.0371 C.3          1    LIG   0.0000
  10 C10          4.1425    -1.0382     1.3868 C.2          1    LIG   0.0000
  11 C11          4.8076    -2.1519     1.6594 C.2          1    LIG   0.0000
  12 N12          5.0297    -3.1099     0.6786 N.2          1    LIG   0.0000
  13 C13          4.5112    -2.9370    -0.4800 C.2          1    LIG   0.0000
  14 S14          4.6329    -4.1601    -1.6961 S.3          1    LIG   0.0000
  15 C15          3.4843    -3.4096    -2.7384 C.2          1    LIG   0.0000
  16 C16          3.0738    -3.8710    -3.9010 C.2          1    LIG   0.0000
  17 C17          3.5671    -5.1436    -4.3911 C.ar         1    LIG   0.0000
  18 C18          4.2599    -5.2036    -5.5960 C.ar         1    LIG   0.0000
  19 C19          4.7332    -6.4239    -6.0664 C.ar         1    LIG   0.0000
  20 C20          4.5153    -7.5848    -5.3314 C.ar         1    LIG   0.0000
  21 C21          3.8230    -7.5253    -4.1259 C.ar         1    LIG   0.0000
  22 C22          3.3482    -6.3054    -3.6562 C.ar         1    LIG   0.0000
  23 O23          2.6792    -6.2782    -2.4836 O.3          1    LIG   0.0000
  24 C24          3.0666    -2.1580    -2.1435 C.2          1    LIG   0.0000
  25 O25          2.2928    -1.4015    -2.6862 O.2          1    LIG   0.0000
  26 N26          3.6963    -1.8904    -0.9245 N.am         1    LIG   0.0000
  27 C27          5.2844    -2.4429     2.9927 C.ar         1    LIG   0.0000
  28 C28          5.7758    -3.7234     3.2333 C.ar         1    LIG   0.0000
  29 C29          6.2171    -4.0416     4.5136 C.ar         1    LIG   0.0000
  30 C30          6.1587    -3.0939     5.5301 C.ar         1    LIG   0.0000
  31 C31          5.6647    -1.8191     5.2667 C.ar         1    LIG   0.0000
  32 C32          5.2358    -1.4795     3.9897 C.ar         1    LIG   0.0000
  33 C33          4.7237    -0.0831     3.6766 C.3          1    LIG   0.0000
  34 C34          3.7655    -0.0640     2.4992 C.3          1    LIG   0.0000
  35 C35          1.2016    -0.6895    -0.0163 C.ar         1    LIG   0.0000
  36 C36         -0.0137    -0.0137    -0.0015 C.ar         1    LIG   0.0000
  37 H            4.4019    -0.0810    -0.4072 H            1    LIG   0.0000
  38 H           -2.4966     4.9859     0.0582 H            1    LIG   0.0000
  39 H           -3.0949     3.7083    -0.7643 H            1    LIG   0.0000
  40 H           -3.0827     3.6950     0.8686 H            1    LIG   0.0000
  41 H            1.1552     3.1001     0.0158 H            1    LIG   0.0000
  42 H            3.2436     1.9243    -0.0092 H            1    LIG   0.0000
  43 H            2.4218    -3.3440    -4.4462 H            1    LIG   0.0000
  44 H            4.4176    -4.3692    -6.1240 H            1    LIG   0.0000
  45 H            5.2303    -6.4668    -6.9331 H            1    LIG   0.0000
  46 H            4.8562    -8.4621    -5.6694 H            1    LIG   0.0000
  47 H            3.6669    -8.3596    -3.5972 H            1    LIG   0.0000
  48 H            2.5330    -7.1247    -1.9716 H            1    LIG   0.0000
  49 H            5.8109    -4.4017     2.4993 H            1    LIG   0.0000
  50 H            6.5776    -4.9547     4.7039 H            1    LIG   0.0000
  51 H            6.4716    -3.3283     6.4505 H            1    LIG   0.0000
  52 H            5.6183    -1.1430     6.0021 H            1    LIG   0.0000
  53 H            5.5045     0.5043     3.4638 H            1    LIG   0.0000
  54 H            4.2490     0.2721     4.4818 H            1    LIG   0.0000
  55 H            2.8525    -0.3014     2.8311 H            1    LIG   0.0000
  56 H            3.7517     0.8605     2.1182 H            1    LIG   0.0000
  57 H            1.2177    -1.6893    -0.0240 H            1    LIG   0.0000
  58 H           -0.8750    -0.5218     0.0008 H            1    LIG   0.0000
@<TRIPOS>BOND
   1        1        2 1
   2        2        3 1
   3        3        4 2
   4        3        5 1
   5        5        6 ar
   6        6        7 ar
   7        7        8 ar
   8        8        9 1
   9        9       10 1
  10       10       11 2
  11       11       12 1
  12       12       13 2
  13       13       14 1
  14       14       15 1
  15       15       16 2
  16       16       17 1
  17       17       18 ar
  18       18       19 ar
  19       19       20 ar
  20       20       21 ar
  21       21       22 ar
  22       22       17 ar
  23       22       23 1
  24       15       24 1
  25       24       25 2
  26       24       26 am
  27       26       13 1
  28       26        9 1
  29       11       27 1
  30       27       28 ar
  31       28       29 ar
  32       29       30 ar
  33       30       31 ar
  34       31       32 ar
  35       32       27 ar
  36       32       33 1
  37       33       34 1
  38       34       10 1
  39        8       35 ar
  40       35       36 ar
  41       36        5 ar
  42        9       37 1
  43        1       38 1
  44        1       39 1
  45        1       40 1
  46        6       41 1
  47        7       42 1
  48       16       43 1
  49       18       44 1
  50       19       45 1
  51       20       46 1
  52       21       47 1
  53       23       48 1
  54       28       49 1
  55       29       50 1
  56       30       51 1
  57       31       52 1
  58       33       53 1
  59       33       54 1
  60       34       55 1
  61       34       56 1
  62       35       57 1
  63       36       58 1

