@<TRIPOS>MOLECULE
*****
 58 63 0 0 0
SMALL
USER_CHARGES

@<TRIPOS>ATOM
      1 C1         -3.5886    2.2050    0.0436 C.3     1  LIG1        0.0000
      2 O2         -2.4079    1.4161    0.0284 O.3     1  LIG1        0.0000
      3 C3         -1.2821    2.0859    0.0254 C.2     1  LIG1        0.0000
      4 O4         -1.2978    3.2858    0.0354 O.2     1  LIG1        0.0000
      5 C5         -0.0173    1.3776    0.0102 C.3     1  LIG1        0.0000
      6 C6          1.1712    2.1003    0.0072 C.3     1  LIG1        0.0000
      7 C7          2.3824    1.4162   -0.0077 C.3     1  LIG1        0.0000
      8 C8          2.3953    0.0257   -0.0205 C.3     1  LIG1        0.0000
      9 C9          3.7197   -0.7119   -0.0371 C.3     1  LIG1        0.0000
     10 C10         4.1619   -1.0482    1.3902 C.2     1  LIG1        0.0000
     11 C11         4.7968   -2.1855    1.6828 C.2     1  LIG1        0.0000
     12 N12         5.0395   -3.1264    0.6736 N.2     1  LIG1        0.0000
     13 C13         4.5223   -2.9399   -0.4654 C.2     1  LIG1        0.0000
     14 S14         4.6209   -4.1328   -1.7172 S.3     1  LIG1        0.0000
     15 C15         3.5230   -3.3853   -2.8163 C.2     1  LIG1        0.0000
     16 C16         3.1769   -3.8536   -4.0078 C.2     1  LIG1        0.0000
     17 C17         3.6980   -5.1271   -4.4657 C.3     1  LIG1        0.0000
     18 C18         4.4580   -5.1898   -5.6292 C.3     1  LIG1        0.0000
     19 C19         4.9580   -6.4109   -6.0687 C.3     1  LIG1        0.0000
     20 C20         4.6995   -7.5701   -5.3441 C.3     1  LIG1        0.0000
     21 C21         3.9398   -7.5079   -4.1800 C.3     1  LIG1        0.0000
     22 C22         3.4384   -6.2871   -3.7413 C.3     1  LIG1        0.0000
     23 O23         2.7040   -6.2573   -2.6086 O.2     1  LIG1        0.0000
     24 C24         3.1329   -2.1637   -2.1683 C.2     1  LIG1        0.0000
     25 O25         2.3588   -1.4277   -2.7515 O.2     1  LIG1        0.0000
     26 N26         3.7314   -1.8969   -0.9152 N.am    1  LIG1        0.0000
     27 C27         5.2644   -2.4644    3.0292 C.3     1  LIG1        0.0000
     28 C28         6.2487   -3.4036    3.3289 C.3     1  LIG1        0.0000
     29 C29         6.6463   -3.6588    4.6382 C.3     1  LIG1        0.0000
     30 C30         6.0512   -2.9587    5.6826 C.3     1  LIG1        0.0000
     31 C31         5.0729   -2.0131    5.3979 C.3     1  LIG1        0.0000
     32 C32         4.6896   -1.7773    4.0841 C.3     1  LIG1        0.0000
     33 C33         3.6159   -0.7427    3.8029 C.3     1  LIG1        0.0000
     34 C34         3.9093   -0.0353    2.4954 C.3     1  LIG1        0.0000
     35 C35         1.2016   -0.6895   -0.0163 C.3     1  LIG1        0.0000
     36 C36        -0.0137   -0.0137   -0.0015 C.3     1  LIG1        0.0000
     37 H           4.3978   -0.0756   -0.4050 H       1  LIG1        0.0000
     38 H          -4.3895    1.6063    0.0447 H       1  LIG1        0.0000
     39 H          -3.5977    2.7755    0.8649 H       1  LIG1        0.0000
     40 H          -3.6099    2.7888   -0.7680 H       1  LIG1        0.0000
     41 H           1.1552    3.1001    0.0158 H       1  LIG1        0.0000
     42 H           3.2436    1.9243   -0.0092 H       1  LIG1        0.0000
     43 H           2.5566   -3.3285   -4.5905 H       1  LIG1        0.0000
     44 H           4.6449   -4.3566   -6.1497 H       1  LIG1        0.0000
     45 H           5.5034   -6.4558   -6.9057 H       1  LIG1        0.0000
     46 H           5.0595   -8.4480   -5.6599 H       1  LIG1        0.0000
     47 H           3.7545   -8.3409   -3.6588 H       1  LIG1        0.0000
     48 H           2.5294   -7.1025   -2.1035 H       1  LIG1        0.0000
     49 H           6.6818   -3.9087    2.5824 H       1  LIG1        0.0000
     50 H           7.3540   -4.3398    4.8265 H       1  LIG1        0.0000
     51 H           6.3244   -3.1339    6.6284 H       1  LIG1        0.0000
     52 H           4.6436   -1.5009    6.1417 H       1  LIG1        0.0000
     53 H           3.5985   -0.0731    4.5454 H       1  LIG1        0.0000
     54 H           2.7267   -1.1962    3.7421 H       1  LIG1        0.0000
     55 H           3.1267    0.5355    2.2468 H       1  LIG1        0.0000
     56 H           4.7196    0.5401    2.6066 H       1  LIG1        0.0000
     57 H           1.2177   -1.6893   -0.0240 H       1  LIG1        0.0000
     58 H          -0.8750   -0.5218    0.0008 H       1  LIG1        0.0000
@<TRIPOS>BOND
     1     1     2    1
     2     2     3    1
     3     3     4    2
     4     3     5    1
     5     5     6   ar
     6     6     7   ar
     7     7     8   ar
     8     8     9    1
     9     9    10    1
    10    10    11    2
    11    11    12    1
    12    12    13    2
    13    13    14    1
    14    14    15    1
    15    15    16    2
    16    16    17    1
    17    17    18   ar
    18    18    19   ar
    19    19    20   ar
    20    20    21   ar
    21    21    22   ar
    22    22    17   ar
    23    22    23    1
    24    15    24    1
    25    24    25    2
    26    24    26   am
    27    26    13    1
    28    26     9    1
    29    11    27    1
    30    27    28   ar
    31    28    29   ar
    32    29    30   ar
    33    30    31   ar
    34    31    32   ar
    35    32    27   ar
    36    32    33    1
    37    33    34    1
    38    34    10    1
    39     8    35   ar
    40    35    36   ar
    41    36     5   ar
    42     9    37    1
    43     1    38    1
    44     1    39    1
    45     1    40    1
    46     6    41    1
    47     7    42    1
    48    16    43    1
    49    18    44    1
    50    19    45    1
    51    20    46    1
    52    21    47    1
    53    23    48    1
    54    28    49    1
    55    29    50    1
    56    30    51    1
    57    31    52    1
    58    33    53    1
    59    33    54    1
    60    34    55    1
    61    34    56    1
    62    35    57    1
    63    36    58    1
