@<TRIPOS>MOLECULE
*****
 58 63 0 0 0
SMALL
USER_CHARGES

@<TRIPOS>ATOM
      1 C1         -2.5887    3.9902    0.0507 C.3     1  LIG1        0.0000
      2 O2         -1.2992    3.3957    0.0363 O.3     1  LIG1        0.0000
      3 C3         -1.2821    2.0859    0.0254 C.2     1  LIG1        0.0000
      4 O4         -2.3134    1.4724    0.0281 O.2     1  LIG1        0.0000
      5 C5         -0.0173    1.3776    0.0102 C.3     1  LIG1        0.0000
      6 C6          1.1712    2.1003    0.0072 C.3     1  LIG1        0.0000
      7 C7          2.3824    1.4162   -0.0077 C.3     1  LIG1        0.0000
      8 C8          2.3953    0.0257   -0.0205 C.3     1  LIG1        0.0000
      9 C9          3.7257   -0.7152   -0.0372 C.3     1  LIG1        0.0000
     10 C10         4.3062   -0.9040    1.3437 C.2     1  LIG1        0.0000
     11 C11         4.8977   -2.0226    1.7006 C.2     1  LIG1        0.0000
     12 N12         4.9881   -3.0816    0.7854 N.2     1  LIG1        0.0000
     13 C13         4.4523   -2.9237   -0.3386 C.2     1  LIG1        0.0000
     14 S14         4.5212   -4.2803   -1.4004 S.3     1  LIG1        0.0000
     15 C15         3.5396   -3.6000   -2.6454 C.2     1  LIG1        0.0000
     16 C16         3.1880   -4.1786   -3.7871 C.2     1  LIG1        0.0000
     17 C17         3.6391   -5.5238   -4.0872 C.3     1  LIG1        0.0000
     18 C18         3.2948   -6.5768   -3.2458 C.3     1  LIG1        0.0000
     19 C19         3.7271   -7.8670   -3.5333 C.3     1  LIG1        0.0000
     20 C20         4.5028   -8.1054   -4.6634 C.3     1  LIG1        0.0000
     21 C21         4.8469   -7.0527   -5.5057 C.3     1  LIG1        0.0000
     22 C22         4.4161   -5.7621   -5.2174 C.3     1  LIG1        0.0000
     23 O23         4.7659   -4.7603   -6.0523 O.2     1  LIG1        0.0000
     24 C24         3.1956   -2.2797   -2.1677 C.2     1  LIG1        0.0000
     25 O25         2.4926   -1.5341   -2.8262 O.2     1  LIG1        0.0000
     26 N26         3.7241   -1.9081   -0.9265 N.am    1  LIG1        0.0000
     27 C27         5.4528   -2.1883    3.0352 C.3     1  LIG1        0.0000
     28 C28         6.4147   -3.1414    3.3507 C.3     1  LIG1        0.0000
     29 C29         6.8957   -3.2640    4.6506 C.3     1  LIG1        0.0000
     30 C30         6.4140   -2.4252    5.6496 C.3     1  LIG1        0.0000
     31 C31         5.4538   -1.4683    5.3386 C.3     1  LIG1        0.0000
     32 C32         4.9760   -1.3491    4.0381 C.3     1  LIG1        0.0000
     33 C33         3.9310   -0.2873    3.7317 C.3     1  LIG1        0.0000
     34 C34         4.1635    0.2473    2.3279 C.3     1  LIG1        0.0000
     35 C35         1.2016   -0.6895   -0.0163 C.3     1  LIG1        0.0000
     36 C36        -0.0137   -0.0137   -0.0015 C.3     1  LIG1        0.0000
     37 H           4.3551   -0.0785   -0.4826 H       1  LIG1        0.0000
     38 H          -2.4966    4.9859    0.0582 H       1  LIG1        0.0000
     39 H          -3.0949    3.7083   -0.7643 H       1  LIG1        0.0000
     40 H          -3.0827    3.6950    0.8686 H       1  LIG1        0.0000
     41 H           1.1552    3.1001    0.0158 H       1  LIG1        0.0000
     42 H           3.2436    1.9243   -0.0092 H       1  LIG1        0.0000
     43 H           2.6122   -3.6869   -4.4402 H       1  LIG1        0.0000
     44 H           2.7364   -6.4059   -2.4340 H       1  LIG1        0.0000
     45 H           3.4804   -8.6235   -2.9276 H       1  LIG1        0.0000
     46 H           4.8131   -9.0333   -4.8703 H       1  LIG1        0.0000
     47 H           5.4039   -7.2240   -6.3183 H       1  LIG1        0.0000
     48 H           5.3247   -4.9536   -6.8588 H       1  LIG1        0.0000
     49 H           6.7649   -3.7458    2.6351 H       1  LIG1        0.0000
     50 H           7.5866   -3.9542    4.8660 H       1  LIG1        0.0000
     51 H           6.7557   -2.5095    6.5856 H       1  LIG1        0.0000
     52 H           5.1051   -0.8627    6.0540 H       1  LIG1        0.0000
     53 H           4.0087    0.4597    4.3919 H       1  LIG1        0.0000
     54 H           3.0174   -0.6898    3.7898 H       1  LIG1        0.0000
     55 H           3.3873    0.8175    2.0589 H       1  LIG1        0.0000
     56 H           4.9995    0.7960    2.3178 H       1  LIG1        0.0000
     57 H           1.2177   -1.6893   -0.0240 H       1  LIG1        0.0000
     58 H          -0.8750   -0.5218    0.0008 H       1  LIG1        0.0000
@<TRIPOS>BOND
     1     1     2    1
     2     2     3    1
     3     3     4    2
     4     3     5    1
     5     5     6   ar
     6     6     7   ar
     7     7     8   ar
     8     8     9    1
     9     9    10    1
    10    10    11    2
    11    11    12    1
    12    12    13    2
    13    13    14    1
    14    14    15    1
    15    15    16    2
    16    16    17    1
    17    17    18   ar
    18    18    19   ar
    19    19    20   ar
    20    20    21   ar
    21    21    22   ar
    22    22    17   ar
    23    22    23    1
    24    15    24    1
    25    24    25    2
    26    24    26   am
    27    26    13    1
    28    26     9    1
    29    11    27    1
    30    27    28   ar
    31    28    29   ar
    32    29    30   ar
    33    30    31   ar
    34    31    32   ar
    35    32    27   ar
    36    32    33    1
    37    33    34    1
    38    34    10    1
    39     8    35   ar
    40    35    36   ar
    41    36     5   ar
    42     9    37    1
    43     1    38    1
    44     1    39    1
    45     1    40    1
    46     6    41    1
    47     7    42    1
    48    16    43    1
    49    18    44    1
    50    19    45    1
    51    20    46    1
    52    21    47    1
    53    23    48    1
    54    28    49    1
    55    29    50    1
    56    30    51    1
    57    31    52    1
    58    33    53    1
    59    33    54    1
    60    34    55    1
    61    34    56    1
    62    35    57    1
    63    36    58    1
