@<TRIPOS>MOLECULE
*****
 58 63 0 0 0
SMALL
USER_CHARGES

@<TRIPOS>ATOM
      1 C1         -3.5886    2.2050    0.0436 C.3     1  LIG1        0.0000
      2 O2         -2.4079    1.4161    0.0284 O.3     1  LIG1        0.0000
      3 C3         -1.2821    2.0859    0.0254 C.2     1  LIG1        0.0000
      4 O4         -1.2978    3.2858    0.0354 O.2     1  LIG1        0.0000
      5 C5         -0.0173    1.3776    0.0102 C.3     1  LIG1        0.0000
      6 C6          1.1712    2.1003    0.0072 C.3     1  LIG1        0.0000
      7 C7          2.3824    1.4162   -0.0077 C.3     1  LIG1        0.0000
      8 C8          2.3953    0.0257   -0.0205 C.3     1  LIG1        0.0000
      9 C9          3.7197   -0.7119   -0.0371 C.3     1  LIG1        0.0000
     10 C10         4.3318   -0.6793   -1.4407 C.2     1  LIG1        0.0000
     11 C11         5.6491   -0.5804   -1.6339 C.2     1  LIG1        0.0000
     12 N12         6.5071   -0.4639   -0.5326 N.2     1  LIG1        0.0000
     13 C13         6.0008   -0.3095    0.6160 C.2     1  LIG1        0.0000
     14 S14         6.9795    0.0188    2.0066 S.3     1  LIG1        0.0000
     15 C15         5.6937    0.3796    3.0969 C.2     1  LIG1        0.0000
     16 C16         5.8281    0.7187    4.3719 C.2     1  LIG1        0.0000
     17 C17         7.1510    0.8618    4.9486 C.3     1  LIG1        0.0000
     18 C18         8.2790    0.6436    4.1641 C.3     1  LIG1        0.0000
     19 C19         9.5479    0.7807    4.7168 C.3     1  LIG1        0.0000
     20 C20         9.6897    1.1375    6.0540 C.3     1  LIG1        0.0000
     21 C21         8.5618    1.3564    6.8389 C.3     1  LIG1        0.0000
     22 C22         7.2928    1.2177    6.2869 C.3     1  LIG1        0.0000
     23 O23         6.2167    1.4358    7.0727 O.2     1  LIG1        0.0000
     24 C24         4.4966    0.1839    2.3268 C.2     1  LIG1        0.0000
     25 O25         3.4258    0.3618    2.8773 O.2     1  LIG1        0.0000
     26 N26         4.6703   -0.2540    0.9934 N.am    1  LIG1        0.0000
     27 C27         6.2210   -0.6119   -2.9686 C.3     1  LIG1        0.0000
     28 C28         7.5564   -0.9080   -3.2329 C.3     1  LIG1        0.0000
     29 C29         8.0685   -0.8988   -4.5271 C.3     1  LIG1        0.0000
     30 C30         7.2297   -0.5890   -5.5926 C.3     1  LIG1        0.0000
     31 C31         5.8930   -0.2988   -5.3446 C.3     1  LIG1        0.0000
     32 C32         5.4045   -0.3108   -4.0447 C.3     1  LIG1        0.0000
     33 C33         3.9423    0.0145   -3.8028 C.3     1  LIG1        0.0000
     34 C34         3.4140   -0.8090   -2.6457 C.3     1  LIG1        0.0000
     35 C35         1.2016   -0.6895   -0.0163 C.3     1  LIG1        0.0000
     36 C36        -0.0137   -0.0137   -0.0015 C.3     1  LIG1        0.0000
     37 H           3.5170   -1.6700    0.1652 H       1  LIG1        0.0000
     38 H          -4.3895    1.6063    0.0447 H       1  LIG1        0.0000
     39 H          -3.5977    2.7755    0.8649 H       1  LIG1        0.0000
     40 H          -3.6099    2.7888   -0.7680 H       1  LIG1        0.0000
     41 H           1.1552    3.1001    0.0158 H       1  LIG1        0.0000
     42 H           3.2436    1.9243   -0.0092 H       1  LIG1        0.0000
     43 H           5.0172    0.8759    4.9357 H       1  LIG1        0.0000
     44 H           8.1775    0.3882    3.2027 H       1  LIG1        0.0000
     45 H          10.3585    0.6228    4.1529 H       1  LIG1        0.0000
     46 H          10.6021    1.2367    6.4510 H       1  LIG1        0.0000
     47 H           8.6636    1.6135    7.7999 H       1  LIG1        0.0000
     48 H           6.3412    1.6907    8.0316 H       1  LIG1        0.0000
     49 H           8.1640   -1.1335   -2.4714 H       1  LIG1        0.0000
     50 H           9.0317   -1.1131   -4.6896 H       1  LIG1        0.0000
     51 H           7.5845   -0.5752   -6.5274 H       1  LIG1        0.0000
     52 H           5.2812   -0.0805   -6.1048 H       1  LIG1        0.0000
     53 H           3.4155   -0.1953   -4.6265 H       1  LIG1        0.0000
     54 H           3.8505    0.9865   -3.5869 H       1  LIG1        0.0000
     55 H           2.5004   -0.4847   -2.4004 H       1  LIG1        0.0000
     56 H           3.3643   -1.7693   -2.9202 H       1  LIG1        0.0000
     57 H           1.2177   -1.6893   -0.0240 H       1  LIG1        0.0000
     58 H          -0.8750   -0.5218    0.0008 H       1  LIG1        0.0000
@<TRIPOS>BOND
     1     1     2    1
     2     2     3    1
     3     3     4    2
     4     3     5    1
     5     5     6   ar
     6     6     7   ar
     7     7     8   ar
     8     8     9    1
     9     9    10    1
    10    10    11    2
    11    11    12    1
    12    12    13    2
    13    13    14    1
    14    14    15    1
    15    15    16    2
    16    16    17    1
    17    17    18   ar
    18    18    19   ar
    19    19    20   ar
    20    20    21   ar
    21    21    22   ar
    22    22    17   ar
    23    22    23    1
    24    15    24    1
    25    24    25    2
    26    24    26   am
    27    26    13    1
    28    26     9    1
    29    11    27    1
    30    27    28   ar
    31    28    29   ar
    32    29    30   ar
    33    30    31   ar
    34    31    32   ar
    35    32    27   ar
    36    32    33    1
    37    33    34    1
    38    34    10    1
    39     8    35   ar
    40    35    36   ar
    41    36     5   ar
    42     9    37    1
    43     1    38    1
    44     1    39    1
    45     1    40    1
    46     6    41    1
    47     7    42    1
    48    16    43    1
    49    18    44    1
    50    19    45    1
    51    20    46    1
    52    21    47    1
    53    23    48    1
    54    28    49    1
    55    29    50    1
    56    30    51    1
    57    31    52    1
    58    33    53    1
    59    33    54    1
    60    34    55    1
    61    34    56    1
    62    35    57    1
    63    36    58    1
