@<TRIPOS>MOLECULE
*****
 58 63 0 0 0
SMALL
USER_CHARGES

@<TRIPOS>ATOM
      1 C1         -2.5887    3.9902    0.0507 C.3     1  LIG1        0.0000
      2 O2         -1.2992    3.3957    0.0363 O.3     1  LIG1        0.0000
      3 C3         -1.2821    2.0859    0.0254 C.2     1  LIG1        0.0000
      4 O4         -2.3134    1.4724    0.0281 O.2     1  LIG1        0.0000
      5 C5         -0.0173    1.3776    0.0102 C.3     1  LIG1        0.0000
      6 C6          1.1712    2.1003    0.0072 C.3     1  LIG1        0.0000
      7 C7          2.3824    1.4162   -0.0077 C.3     1  LIG1        0.0000
      8 C8          2.3953    0.0257   -0.0205 C.3     1  LIG1        0.0000
      9 C9          3.7202   -0.7122   -0.0371 C.3     1  LIG1        0.0000
     10 C10         4.1425   -1.0382    1.3868 C.2     1  LIG1        0.0000
     11 C11         4.8076   -2.1519    1.6594 C.2     1  LIG1        0.0000
     12 N12         5.0297   -3.1099    0.6786 N.2     1  LIG1        0.0000
     13 C13         4.5112   -2.9370   -0.4800 C.2     1  LIG1        0.0000
     14 S14         4.6329   -4.1601   -1.6961 S.3     1  LIG1        0.0000
     15 C15         3.4843   -3.4096   -2.7384 C.2     1  LIG1        0.0000
     16 C16         3.0738   -3.8710   -3.9010 C.2     1  LIG1        0.0000
     17 C17         3.5671   -5.1436   -4.3911 C.3     1  LIG1        0.0000
     18 C18         4.2599   -5.2036   -5.5960 C.3     1  LIG1        0.0000
     19 C19         4.7332   -6.4239   -6.0664 C.3     1  LIG1        0.0000
     20 C20         4.5153   -7.5848   -5.3314 C.3     1  LIG1        0.0000
     21 C21         3.8230   -7.5253   -4.1259 C.3     1  LIG1        0.0000
     22 C22         3.3482   -6.3054   -3.6562 C.3     1  LIG1        0.0000
     23 O23         2.6792   -6.2782   -2.4836 O.2     1  LIG1        0.0000
     24 C24         3.0666   -2.1580   -2.1435 C.2     1  LIG1        0.0000
     25 O25         2.2928   -1.4015   -2.6862 O.2     1  LIG1        0.0000
     26 N26         3.6963   -1.8904   -0.9245 N.am    1  LIG1        0.0000
     27 C27         5.2844   -2.4429    2.9927 C.3     1  LIG1        0.0000
     28 C28         5.7758   -3.7234    3.2333 C.3     1  LIG1        0.0000
     29 C29         6.2171   -4.0416    4.5136 C.3     1  LIG1        0.0000
     30 C30         6.1587   -3.0939    5.5301 C.3     1  LIG1        0.0000
     31 C31         5.6647   -1.8191    5.2667 C.3     1  LIG1        0.0000
     32 C32         5.2358   -1.4795    3.9897 C.3     1  LIG1        0.0000
     33 C33         4.7237   -0.0831    3.6766 C.3     1  LIG1        0.0000
     34 C34         3.7655   -0.0640    2.4992 C.3     1  LIG1        0.0000
     35 C35         1.2016   -0.6895   -0.0163 C.3     1  LIG1        0.0000
     36 C36        -0.0137   -0.0137   -0.0015 C.3     1  LIG1        0.0000
     37 H           4.4019   -0.0810   -0.4072 H       1  LIG1        0.0000
     38 H          -2.4966    4.9859    0.0582 H       1  LIG1        0.0000
     39 H          -3.0949    3.7083   -0.7643 H       1  LIG1        0.0000
     40 H          -3.0827    3.6950    0.8686 H       1  LIG1        0.0000
     41 H           1.1552    3.1001    0.0158 H       1  LIG1        0.0000
     42 H           3.2436    1.9243   -0.0092 H       1  LIG1        0.0000
     43 H           2.4218   -3.3440   -4.4462 H       1  LIG1        0.0000
     44 H           4.4176   -4.3692   -6.1240 H       1  LIG1        0.0000
     45 H           5.2303   -6.4668   -6.9331 H       1  LIG1        0.0000
     46 H           4.8562   -8.4621   -5.6694 H       1  LIG1        0.0000
     47 H           3.6669   -8.3596   -3.5972 H       1  LIG1        0.0000
     48 H           2.5330   -7.1247   -1.9716 H       1  LIG1        0.0000
     49 H           5.8109   -4.4017    2.4993 H       1  LIG1        0.0000
     50 H           6.5776   -4.9547    4.7039 H       1  LIG1        0.0000
     51 H           6.4716   -3.3283    6.4505 H       1  LIG1        0.0000
     52 H           5.6183   -1.1430    6.0021 H       1  LIG1        0.0000
     53 H           5.5045    0.5043    3.4638 H       1  LIG1        0.0000
     54 H           4.2490    0.2721    4.4818 H       1  LIG1        0.0000
     55 H           2.8525   -0.3014    2.8311 H       1  LIG1        0.0000
     56 H           3.7517    0.8605    2.1182 H       1  LIG1        0.0000
     57 H           1.2177   -1.6893   -0.0240 H       1  LIG1        0.0000
     58 H          -0.8750   -0.5218    0.0008 H       1  LIG1        0.0000
@<TRIPOS>BOND
     1     1     2    1
     2     2     3    1
     3     3     4    2
     4     3     5    1
     5     5     6   ar
     6     6     7   ar
     7     7     8   ar
     8     8     9    1
     9     9    10    1
    10    10    11    2
    11    11    12    1
    12    12    13    2
    13    13    14    1
    14    14    15    1
    15    15    16    2
    16    16    17    1
    17    17    18   ar
    18    18    19   ar
    19    19    20   ar
    20    20    21   ar
    21    21    22   ar
    22    22    17   ar
    23    22    23    1
    24    15    24    1
    25    24    25    2
    26    24    26   am
    27    26    13    1
    28    26     9    1
    29    11    27    1
    30    27    28   ar
    31    28    29   ar
    32    29    30   ar
    33    30    31   ar
    34    31    32   ar
    35    32    27   ar
    36    32    33    1
    37    33    34    1
    38    34    10    1
    39     8    35   ar
    40    35    36   ar
    41    36     5   ar
    42     9    37    1
    43     1    38    1
    44     1    39    1
    45     1    40    1
    46     6    41    1
    47     7    42    1
    48    16    43    1
    49    18    44    1
    50    19    45    1
    51    20    46    1
    52    21    47    1
    53    23    48    1
    54    28    49    1
    55    29    50    1
    56    30    51    1
    57    31    52    1
    58    33    53    1
    59    33    54    1
    60    34    55    1
    61    34    56    1
    62    35    57    1
    63    36    58    1
