@<TRIPOS>MOLECULE
*****
 58 63 0 0 0
SMALL
USER_CHARGES

@<TRIPOS>ATOM
      1 C1         -2.5887    3.9902    0.0507 C.3     1  LIG1        0.0000
      2 O2         -1.2992    3.3957    0.0363 O.3     1  LIG1        0.0000
      3 C3         -1.2821    2.0859    0.0254 C.2     1  LIG1        0.0000
      4 O4         -2.3134    1.4724    0.0281 O.2     1  LIG1        0.0000
      5 C5         -0.0173    1.3776    0.0102 C.3     1  LIG1        0.0000
      6 C6          1.1712    2.1003    0.0072 C.3     1  LIG1        0.0000
      7 C7          2.3824    1.4162   -0.0077 C.3     1  LIG1        0.0000
      8 C8          2.3953    0.0257   -0.0205 C.3     1  LIG1        0.0000
      9 C9          3.7267   -0.7158   -0.0372 C.3     1  LIG1        0.0000
     10 C10         4.2912   -0.7580   -1.4494 C.2     1  LIG1        0.0000
     11 C11         5.6052   -0.6183   -1.5956 C.2     1  LIG1        0.0000
     12 N12         6.4788   -0.3679   -0.5385 N.2     1  LIG1        0.0000
     13 C13         5.9684   -0.1979    0.5997 C.2     1  LIG1        0.0000
     14 S14         7.0315    0.1924    1.9052 S.3     1  LIG1        0.0000
     15 C15         5.7520    0.5193    3.0334 C.2     1  LIG1        0.0000
     16 C16         5.8913    0.9334    4.2755 C.2     1  LIG1        0.0000
     17 C17         7.2149    1.1855    4.8117 C.3     1  LIG1        0.0000
     18 C18         7.6635    0.4741    5.9199 C.3     1  LIG1        0.0000
     19 C19         8.9329    0.7155    6.4344 C.3     1  LIG1        0.0000
     20 C20         9.7551    1.6675    5.8402 C.3     1  LIG1        0.0000
     21 C21         9.3072    2.3789    4.7314 C.3     1  LIG1        0.0000
     22 C22         8.0372    2.1388    4.2177 C.3     1  LIG1        0.0000
     23 O23         7.6292    2.8447    3.1414 O.2     1  LIG1        0.0000
     24 C24         4.5211    0.2253    2.3526 C.2     1  LIG1        0.0000
     25 O25         3.4664    0.3163    2.9598 O.2     1  LIG1        0.0000
     26 N26         4.6503   -0.2187    1.0192 N.am    1  LIG1        0.0000
     27 C27         6.1743   -0.7112   -2.9268 C.3     1  LIG1        0.0000
     28 C28         7.4876   -0.3174   -3.1651 C.3     1  LIG1        0.0000
     29 C29         8.0615   -0.3817   -4.4305 C.3     1  LIG1        0.0000
     30 C30         7.3015   -0.8511   -5.4964 C.3     1  LIG1        0.0000
     31 C31         5.9876   -1.2553   -5.2782 C.3     1  LIG1        0.0000
     32 C32         5.4334   -1.1915   -4.0040 C.3     1  LIG1        0.0000
     33 C33         4.0005   -1.6641   -3.8003 C.3     1  LIG1        0.0000
     34 C34         3.3431   -0.9511   -2.6282 C.3     1  LIG1        0.0000
     35 C35         1.2016   -0.6895   -0.0163 C.3     1  LIG1        0.0000
     36 C36        -0.0137   -0.0137   -0.0015 C.3     1  LIG1        0.0000
     37 H           3.5171   -1.6634    0.2040 H       1  LIG1        0.0000
     38 H          -2.4966    4.9859    0.0582 H       1  LIG1        0.0000
     39 H          -3.0949    3.7083   -0.7643 H       1  LIG1        0.0000
     40 H          -3.0827    3.6950    0.8686 H       1  LIG1        0.0000
     41 H           1.1552    3.1001    0.0158 H       1  LIG1        0.0000
     42 H           3.2436    1.9243   -0.0092 H       1  LIG1        0.0000
     43 H           5.0843    1.0740    4.8491 H       1  LIG1        0.0000
     44 H           7.0731   -0.2110    6.3466 H       1  LIG1        0.0000
     45 H           9.2546    0.2047    7.2316 H       1  LIG1        0.0000
     46 H          10.6680    1.8405    6.2099 H       1  LIG1        0.0000
     47 H           9.8984    3.0627    4.3038 H       1  LIG1        0.0000
     48 H           8.2360    3.5249    2.7302 H       1  LIG1        0.0000
     49 H           8.0367    0.0228   -2.4016 H       1  LIG1        0.0000
     50 H           9.0087   -0.0939   -4.5721 H       1  LIG1        0.0000
     51 H           7.6965   -0.8980   -6.4139 H       1  LIG1        0.0000
     52 H           5.4385   -1.5937   -6.0424 H       1  LIG1        0.0000
     53 H           4.0046   -2.6481   -3.6220 H       1  LIG1        0.0000
     54 H           3.4752   -1.4780   -4.6306 H       1  LIG1        0.0000
     55 H           3.0282   -0.0532   -2.9358 H       1  LIG1        0.0000
     56 H           2.5597   -1.4926   -2.3231 H       1  LIG1        0.0000
     57 H           1.2177   -1.6893   -0.0240 H       1  LIG1        0.0000
     58 H          -0.8750   -0.5218    0.0008 H       1  LIG1        0.0000
@<TRIPOS>BOND
     1     1     2    1
     2     2     3    1
     3     3     4    2
     4     3     5    1
     5     5     6   ar
     6     6     7   ar
     7     7     8   ar
     8     8     9    1
     9     9    10    1
    10    10    11    2
    11    11    12    1
    12    12    13    2
    13    13    14    1
    14    14    15    1
    15    15    16    2
    16    16    17    1
    17    17    18   ar
    18    18    19   ar
    19    19    20   ar
    20    20    21   ar
    21    21    22   ar
    22    22    17   ar
    23    22    23    1
    24    15    24    1
    25    24    25    2
    26    24    26   am
    27    26    13    1
    28    26     9    1
    29    11    27    1
    30    27    28   ar
    31    28    29   ar
    32    29    30   ar
    33    30    31   ar
    34    31    32   ar
    35    32    27   ar
    36    32    33    1
    37    33    34    1
    38    34    10    1
    39     8    35   ar
    40    35    36   ar
    41    36     5   ar
    42     9    37    1
    43     1    38    1
    44     1    39    1
    45     1    40    1
    46     6    41    1
    47     7    42    1
    48    16    43    1
    49    18    44    1
    50    19    45    1
    51    20    46    1
    52    21    47    1
    53    23    48    1
    54    28    49    1
    55    29    50    1
    56    30    51    1
    57    31    52    1
    58    33    53    1
    59    33    54    1
    60    34    55    1
    61    34    56    1
    62    35    57    1
    63    36    58    1
