@<TRIPOS>MOLECULE

  50   55
SMALL
USER_CHARGES
@<TRIPOS>ATOM
   1 C1           3.3222    -5.6229    -0.1840 C.3          1    LIG   0.0000
   2 C2           2.7988    -4.1963    -0.1438 C.ar         1    LIG   0.0000
   3 C3           3.4112    -3.2211    -0.9248 C.ar         1    LIG   0.0000
   4 C4           2.9276    -1.9179    -0.8839 C.ar         1    LIG   0.0000
   5 C5           1.8451    -1.6027    -0.0684 C.ar         1    LIG   0.0000
   6 N6           1.3628    -0.2888    -0.0303 N.pl3        1    LIG   0.0000
   7 N7           2.0875     0.7995    -0.0330 N.2          1    LIG   0.0000
   8 N8           1.3300     1.8119     0.0053 N.2          1    LIG   0.0000
   9 N9           0.0778     1.4136     0.0379 N.2          1    LIG   0.0000
  10 C10          0.0642     0.1019     0.0199 C.2          1    LIG   0.0000
  11 S11         -1.3379    -0.9295     0.0478 S.3          1    LIG   0.0000
  12 C12         -2.6492     0.2138     0.1034 C.ar         1    LIG   0.0000
  13 N13         -2.3554     1.5250     0.1129 N.ar         1    LIG   0.0000
  14 C14         -3.3130     2.4656     0.1522 C.ar         1    LIG   0.0000
  15 C15         -3.0207     3.8892     0.1673 C.ar         1    LIG   0.0000
  16 C16         -1.7036     4.3362     0.1379 C.ar         1    LIG   0.0000
  17 N17         -1.4204     5.6468     0.1492 N.ar         1    LIG   0.0000
  18 C18         -2.4014     6.5605     0.1890 C.ar         1    LIG   0.0000
  19 C19         -3.7250     6.1333     0.2181 C.ar         1    LIG   0.0000
  20 N20         -3.9903     4.8176     0.2068 N.ar         1    LIG   0.0000
  21 N21         -4.5976     2.1091     0.1779 N.ar         1    LIG   0.0000
  22 C22         -4.8360     0.7964     0.1634 C.ar         1    LIG   0.0000
  23 S23         -6.4285     0.2038     0.1807 S.3          1    LIG   0.0000
  24 C24         -5.9919    -1.4358     0.1571 C.2          1    LIG   0.0000
  25 C25         -4.6261    -1.5307     0.1451 C.2          1    LIG   0.0000
  26 C26         -3.9545    -0.2666     0.1361 C.ar         1    LIG   0.0000
  27 C27         -4.1644    -2.9869     0.1680 C.3          1    LIG   0.0000
  28 C28         -5.2400    -3.9743    -0.2544 C.3          1    LIG   0.0000
  29 C29         -6.4555    -3.7267     0.6247 C.3          1    LIG   0.0000
  30 C30         -7.1172    -2.4501     0.1387 C.3          1    LIG   0.0000
  31 C31          1.2325    -2.5780     0.7116 C.ar         1    LIG   0.0000
  32 C32          1.7158    -3.8816     0.6701 C.ar         1    LIG   0.0000
  33 H            2.7774    -6.1953     0.4289 H            1    LIG   0.0000
  34 H            3.2556    -5.9763    -1.1171 H            1    LIG   0.0000
  35 H            4.2780    -5.6357     0.1098 H            1    LIG   0.0000
  36 H            4.1892    -3.4544    -1.5081 H            1    LIG   0.0000
  37 H            3.3579    -1.2072    -1.4405 H            1    LIG   0.0000
  38 H           -0.9577     3.6708     0.1079 H            1    LIG   0.0000
  39 H           -2.1841     7.5366     0.1978 H            1    LIG   0.0000
  40 H           -4.4706     6.7991     0.2470 H            1    LIG   0.0000
  41 H           -3.8764    -3.2124     1.0987 H            1    LIG   0.0000
  42 H           -3.3869    -3.0816    -0.4537 H            1    LIG   0.0000
  43 H           -4.9125    -4.9108    -0.1289 H            1    LIG   0.0000
  44 H           -5.4779    -3.8303    -1.2149 H            1    LIG   0.0000
  45 H           -7.0938    -4.4927     0.5484 H            1    LIG   0.0000
  46 H           -6.1719    -3.6228     1.5780 H            1    LIG   0.0000
  47 H           -7.4789    -2.5653    -0.7865 H            1    LIG   0.0000
  48 H           -7.8562    -2.1746     0.7535 H            1    LIG   0.0000
  49 H            0.4544    -2.3449     1.2948 H            1    LIG   0.0000
  50 H            1.2845    -4.5926     1.2255 H            1    LIG   0.0000
@<TRIPOS>BOND
   1        1        2 1
   2        2        3 ar
   3        3        4 ar
   4        4        5 ar
   5        5        6 1
   6        6        7 1
   7        7        8 2
   8        8        9 1
   9        9       10 2
  10       10        6 1
  11       10       11 1
  12       11       12 1
  13       12       13 ar
  14       13       14 ar
  15       14       15 1
  16       15       16 ar
  17       16       17 ar
  18       17       18 ar
  19       18       19 ar
  20       19       20 ar
  21       20       15 ar
  22       14       21 ar
  23       21       22 ar
  24       22       23 1
  25       23       24 1
  26       24       25 2
  27       25       26 1
  28       26       12 ar
  29       26       22 ar
  30       25       27 1
  31       27       28 1
  32       28       29 1
  33       29       30 1
  34       30       24 1
  35        5       31 ar
  36       31       32 ar
  37       32        2 ar
  38        1       33 1
  39        1       34 1
  40        1       35 1
  41        3       36 1
  42        4       37 1
  43       16       38 1
  44       18       39 1
  45       19       40 1
  46       27       41 1
  47       27       42 1
  48       28       43 1
  49       28       44 1
  50       29       45 1
  51       29       46 1
  52       30       47 1
  53       30       48 1
  54       31       49 1
  55       32       50 1

@<TRIPOS>MOLECULE

  50   55
SMALL
USER_CHARGES
@<TRIPOS>ATOM
   1 C1           3.3222    -5.6229    -0.1840 C.3          1    LIG   0.0000
   2 C2           2.7988    -4.1963    -0.1438 C.ar         1    LIG   0.0000
   3 C3           3.4112    -3.2211    -0.9248 C.ar         1    LIG   0.0000
   4 C4           2.9276    -1.9179    -0.8839 C.ar         1    LIG   0.0000
   5 C5           1.8451    -1.6027    -0.0684 C.ar         1    LIG   0.0000
   6 N6           1.3628    -0.2888    -0.0303 N.pl3        1    LIG   0.0000
   7 N7           2.0875     0.7995    -0.0330 N.2          1    LIG   0.0000
   8 N8           1.3300     1.8119     0.0053 N.2          1    LIG   0.0000
   9 N9           0.0778     1.4136     0.0379 N.2          1    LIG   0.0000
  10 C10          0.0642     0.1019     0.0199 C.2          1    LIG   0.0000
  11 S11         -1.3379    -0.9295     0.0478 S.3          1    LIG   0.0000
  12 C12         -2.6492     0.2138     0.1034 C.ar         1    LIG   0.0000
  13 N13         -3.1671     0.6508    -1.0570 N.ar         1    LIG   0.0000
  14 C14         -4.1812     1.5303    -1.0939 C.ar         1    LIG   0.0000
  15 C15         -4.7557     2.0208    -2.3355 C.ar         1    LIG   0.0000
  16 C16         -4.2622     1.5812    -3.5597 C.ar         1    LIG   0.0000
  17 N17         -4.7847     2.0242    -4.7124 N.ar         1    LIG   0.0000
  18 C18         -5.7976     2.9034    -4.7136 C.ar         1    LIG   0.0000
  19 C19         -6.3055     3.3542    -3.4995 C.ar         1    LIG   0.0000
  20 N20         -5.7701     2.9007    -2.3552 N.ar         1    LIG   0.0000
  21 N21         -4.7063     1.9910     0.0419 N.ar         1    LIG   0.0000
  22 C22         -4.1594     1.5239     1.1656 C.ar         1    LIG   0.0000
  23 S23         -4.7401     2.0187     2.6840 S.3          1    LIG   0.0000
  24 C24         -3.6435     1.0910     3.5875 C.2          1    LIG   0.0000
  25 C25         -2.8259     0.4086     2.7271 C.2          1    LIG   0.0000
  26 C26         -3.1163     0.6360     1.3440 C.ar         1    LIG   0.0000
  27 C27         -1.7823    -0.4156     3.4793 C.3          1    LIG   0.0000
  28 C28         -2.1399    -0.6708     4.9343 C.3          1    LIG   0.0000
  29 C29         -2.4040     0.6794     5.5815 C.3          1    LIG   0.0000
  30 C30         -3.7596     1.1601     5.0965 C.3          1    LIG   0.0000
  31 C31          1.2325    -2.5780     0.7116 C.ar         1    LIG   0.0000
  32 C32          1.7158    -3.8816     0.6701 C.ar         1    LIG   0.0000
  33 H            2.7774    -6.1953     0.4289 H            1    LIG   0.0000
  34 H            3.2556    -5.9763    -1.1171 H            1    LIG   0.0000
  35 H            4.2780    -5.6357     0.1098 H            1    LIG   0.0000
  36 H            4.1892    -3.4544    -1.5081 H            1    LIG   0.0000
  37 H            3.3579    -1.2072    -1.4405 H            1    LIG   0.0000
  38 H           -3.5073     0.9256    -3.5803 H            1    LIG   0.0000
  39 H           -6.1829     3.2306    -5.5765 H            1    LIG   0.0000
  40 H           -7.0611     4.0090    -3.4795 H            1    LIG   0.0000
  41 H           -0.9112     0.0745     3.4493 H            1    LIG   0.0000
  42 H           -1.6845    -1.2977     3.0186 H            1    LIG   0.0000
  43 H           -1.3813    -1.1292     5.3974 H            1    LIG   0.0000
  44 H           -2.9586    -1.2423     4.9899 H            1    LIG   0.0000
  45 H           -2.4111     0.5854     6.5770 H            1    LIG   0.0000
  46 H           -1.6946     1.3312     5.3133 H            1    LIG   0.0000
  47 H           -4.4896     0.5614     5.4262 H            1    LIG   0.0000
  48 H           -3.9351     2.0971     5.3985 H            1    LIG   0.0000
  49 H            0.4544    -2.3449     1.2948 H            1    LIG   0.0000
  50 H            1.2845    -4.5926     1.2255 H            1    LIG   0.0000
@<TRIPOS>BOND
   1        1        2 1
   2        2        3 ar
   3        3        4 ar
   4        4        5 ar
   5        5        6 1
   6        6        7 1
   7        7        8 2
   8        8        9 1
   9        9       10 2
  10       10        6 1
  11       10       11 1
  12       11       12 1
  13       12       13 ar
  14       13       14 ar
  15       14       15 1
  16       15       16 ar
  17       16       17 ar
  18       17       18 ar
  19       18       19 ar
  20       19       20 ar
  21       20       15 ar
  22       14       21 ar
  23       21       22 ar
  24       22       23 1
  25       23       24 1
  26       24       25 2
  27       25       26 1
  28       26       12 ar
  29       26       22 ar
  30       25       27 1
  31       27       28 1
  32       28       29 1
  33       29       30 1
  34       30       24 1
  35        5       31 ar
  36       31       32 ar
  37       32        2 ar
  38        1       33 1
  39        1       34 1
  40        1       35 1
  41        3       36 1
  42        4       37 1
  43       16       38 1
  44       18       39 1
  45       19       40 1
  46       27       41 1
  47       27       42 1
  48       28       43 1
  49       28       44 1
  50       29       45 1
  51       29       46 1
  52       30       47 1
  53       30       48 1
  54       31       49 1
  55       32       50 1

@<TRIPOS>MOLECULE

  50   55
SMALL
USER_CHARGES
@<TRIPOS>ATOM
   1 C1           3.3222    -5.6229    -0.1840 C.3          1    LIG   0.0000
   2 C2           2.7988    -4.1963    -0.1438 C.ar         1    LIG   0.0000
   3 C3           3.4112    -3.2211    -0.9248 C.ar         1    LIG   0.0000
   4 C4           2.9276    -1.9179    -0.8839 C.ar         1    LIG   0.0000
   5 C5           1.8451    -1.6027    -0.0684 C.ar         1    LIG   0.0000
   6 N6           1.3628    -0.2888    -0.0303 N.pl3        1    LIG   0.0000
   7 N7           2.0875     0.7995    -0.0330 N.2          1    LIG   0.0000
   8 N8           1.3300     1.8119     0.0053 N.2          1    LIG   0.0000
   9 N9           0.0778     1.4136     0.0379 N.2          1    LIG   0.0000
  10 C10          0.0642     0.1019     0.0199 C.2          1    LIG   0.0000
  11 S11         -1.3379    -0.9295     0.0478 S.3          1    LIG   0.0000
  12 C12         -2.6492     0.2138     0.1034 C.ar         1    LIG   0.0000
  13 N13         -3.0958     0.6177     1.3047 N.ar         1    LIG   0.0000
  14 C14         -4.1016     1.4990     1.4271 C.ar         1    LIG   0.0000
  15 C15         -4.6049     1.9482     2.7145 C.ar         1    LIG   0.0000
  16 C16         -4.0442     1.4688     3.8940 C.ar         1    LIG   0.0000
  17 N17         -4.4978     1.8767     5.0880 N.ar         1    LIG   0.0000
  18 C18         -5.5047     2.7585     5.1749 C.ar         1    LIG   0.0000
  19 C19         -6.0780     3.2501     4.0066 C.ar         1    LIG   0.0000
  20 N20         -5.6119     2.8305     2.8199 N.ar         1    LIG   0.0000
  21 N21         -4.6832     2.0031     0.3383 N.ar         1    LIG   0.0000
  22 C22         -4.2010     1.5731    -0.8291 C.ar         1    LIG   0.0000
  23 S23         -4.8423     2.1436    -2.2956 S.3          1    LIG   0.0000
  24 C24         -3.8194     1.2236    -3.2890 C.2          1    LIG   0.0000
  25 C25         -2.9922     0.4720    -2.4983 C.2          1    LIG   0.0000
  26 C26         -3.1900     0.6702    -1.0945 C.ar         1    LIG   0.0000
  27 C27         -2.0717    -0.4162    -3.3337 C.3          1    LIG   0.0000
  28 C28         -1.9375     0.0338    -4.7793 C.3          1    LIG   0.0000
  29 C29         -3.3405     0.1370    -5.3558 C.3          1    LIG   0.0000
  30 C30         -3.9762     1.3923    -4.7864 C.3          1    LIG   0.0000
  31 C31          1.2325    -2.5780     0.7116 C.ar         1    LIG   0.0000
  32 C32          1.7158    -3.8816     0.6701 C.ar         1    LIG   0.0000
  33 H            2.7774    -6.1953     0.4289 H            1    LIG   0.0000
  34 H            3.2556    -5.9763    -1.1171 H            1    LIG   0.0000
  35 H            4.2780    -5.6357     0.1098 H            1    LIG   0.0000
  36 H            4.1892    -3.4544    -1.5081 H            1    LIG   0.0000
  37 H            3.3579    -1.2072    -1.4405 H            1    LIG   0.0000
  38 H           -3.2924     0.8108     3.8507 H            1    LIG   0.0000
  39 H           -5.8392     3.0587     6.0683 H            1    LIG   0.0000
  40 H           -6.8291     3.9089     4.0505 H            1    LIG   0.0000
  41 H           -2.4375    -1.3468    -3.3252 H            1    LIG   0.0000
  42 H           -1.1632    -0.4113    -2.9157 H            1    LIG   0.0000
  43 H           -1.4036    -0.6346    -5.2972 H            1    LIG   0.0000
  44 H           -1.4852     0.9248    -4.8194 H            1    LIG   0.0000
  45 H           -3.2963     0.1988    -6.3529 H            1    LIG   0.0000
  46 H           -3.8768    -0.6657    -5.0950 H            1    LIG   0.0000
  47 H           -3.4982     2.2107    -5.1055 H            1    LIG   0.0000
  48 H           -4.9417     1.4501    -5.0401 H            1    LIG   0.0000
  49 H            0.4544    -2.3449     1.2948 H            1    LIG   0.0000
  50 H            1.2845    -4.5926     1.2255 H            1    LIG   0.0000
@<TRIPOS>BOND
   1        1        2 1
   2        2        3 ar
   3        3        4 ar
   4        4        5 ar
   5        5        6 1
   6        6        7 1
   7        7        8 2
   8        8        9 1
   9        9       10 2
  10       10        6 1
  11       10       11 1
  12       11       12 1
  13       12       13 ar
  14       13       14 ar
  15       14       15 1
  16       15       16 ar
  17       16       17 ar
  18       17       18 ar
  19       18       19 ar
  20       19       20 ar
  21       20       15 ar
  22       14       21 ar
  23       21       22 ar
  24       22       23 1
  25       23       24 1
  26       24       25 2
  27       25       26 1
  28       26       12 ar
  29       26       22 ar
  30       25       27 1
  31       27       28 1
  32       28       29 1
  33       29       30 1
  34       30       24 1
  35        5       31 ar
  36       31       32 ar
  37       32        2 ar
  38        1       33 1
  39        1       34 1
  40        1       35 1
  41        3       36 1
  42        4       37 1
  43       16       38 1
  44       18       39 1
  45       19       40 1
  46       27       41 1
  47       27       42 1
  48       28       43 1
  49       28       44 1
  50       29       45 1
  51       29       46 1
  52       30       47 1
  53       30       48 1
  54       31       49 1
  55       32       50 1

@<TRIPOS>MOLECULE

  50   55
SMALL
USER_CHARGES
@<TRIPOS>ATOM
   1 C1           3.3222    -5.6229    -0.1840 C.3          1    LIG   0.0000
   2 C2           2.7988    -4.1963    -0.1438 C.ar         1    LIG   0.0000
   3 C3           3.4112    -3.2211    -0.9248 C.ar         1    LIG   0.0000
   4 C4           2.9276    -1.9179    -0.8839 C.ar         1    LIG   0.0000
   5 C5           1.8451    -1.6027    -0.0684 C.ar         1    LIG   0.0000
   6 N6           1.3628    -0.2888    -0.0303 N.pl3        1    LIG   0.0000
   7 N7           2.0875     0.7995    -0.0330 N.2          1    LIG   0.0000
   8 N8           1.3300     1.8119     0.0053 N.2          1    LIG   0.0000
   9 N9           0.0778     1.4136     0.0379 N.2          1    LIG   0.0000
  10 C10          0.0642     0.1019     0.0199 C.2          1    LIG   0.0000
  11 S11         -1.3379    -0.9295     0.0478 S.3          1    LIG   0.0000
  12 C12         -1.6949    -1.1307    -1.6439 C.ar         1    LIG   0.0000
  13 N13         -0.9053    -0.5179    -2.5421 N.ar         1    LIG   0.0000
  14 C14         -1.1166    -0.6287    -3.8636 C.ar         1    LIG   0.0000
  15 C15         -0.2795     0.0273    -4.8542 C.ar         1    LIG   0.0000
  16 C16          0.7988     0.8104    -4.4552 C.ar         1    LIG   0.0000
  17 N17          1.5801     1.4191    -5.3590 N.ar         1    LIG   0.0000
  18 C18          1.3411     1.2877    -6.6722 C.ar         1    LIG   0.0000
  19 C19          0.2678     0.5081    -7.0913 C.ar         1    LIG   0.0000
  20 N20         -0.5043    -0.0937    -6.1728 N.ar         1    LIG   0.0000
  21 N21         -2.1298    -1.3669    -4.3176 N.ar         1    LIG   0.0000
  22 C22         -2.8811    -1.9569    -3.3862 C.ar         1    LIG   0.0000
  23 S23         -4.1980    -2.9366    -3.8262 S.3          1    LIG   0.0000
  24 C24         -4.6566    -3.3157    -2.2370 C.2          1    LIG   0.0000
  25 C25         -3.8072    -2.6849    -1.3681 C.2          1    LIG   0.0000
  26 C26         -2.7830    -1.9171    -2.0090 C.ar         1    LIG   0.0000
  27 C27         -4.1931    -2.9501     0.0861 C.3          1    LIG   0.0000
  28 C28         -5.0905    -4.1634     0.2673 C.3          1    LIG   0.0000
  29 C29         -6.2970    -3.9763    -0.6387 C.3          1    LIG   0.0000
  30 C30         -5.8432    -4.2414    -2.0628 C.3          1    LIG   0.0000
  31 C31          1.2325    -2.5780     0.7116 C.ar         1    LIG   0.0000
  32 C32          1.7158    -3.8816     0.6701 C.ar         1    LIG   0.0000
  33 H            2.7774    -6.1953     0.4289 H            1    LIG   0.0000
  34 H            3.2556    -5.9763    -1.1171 H            1    LIG   0.0000
  35 H            4.2780    -5.6357     0.1098 H            1    LIG   0.0000
  36 H            4.1892    -3.4544    -1.5081 H            1    LIG   0.0000
  37 H            3.3579    -1.2072    -1.4405 H            1    LIG   0.0000
  38 H            0.9940     0.9208    -3.4806 H            1    LIG   0.0000
  39 H            1.9269     1.7445    -7.3417 H            1    LIG   0.0000
  40 H            0.0737     0.3971    -8.0659 H            1    LIG   0.0000
  41 H           -4.6737    -2.1465     0.4371 H            1    LIG   0.0000
  42 H           -3.3560    -3.0947     0.6138 H            1    LIG   0.0000
  43 H           -5.3859    -4.2307     1.2203 H            1    LIG   0.0000
  44 H           -4.5969    -4.9947     0.0118 H            1    LIG   0.0000
  45 H           -7.0181    -4.6208    -0.3846 H            1    LIG   0.0000
  46 H           -6.6423    -3.0412    -0.5588 H            1    LIG   0.0000
  47 H           -5.5709    -5.1965    -2.1787 H            1    LIG   0.0000
  48 H           -6.5677    -4.0197    -2.7154 H            1    LIG   0.0000
  49 H            0.4544    -2.3449     1.2948 H            1    LIG   0.0000
  50 H            1.2845    -4.5926     1.2255 H            1    LIG   0.0000
@<TRIPOS>BOND
   1        1        2 1
   2        2        3 ar
   3        3        4 ar
   4        4        5 ar
   5        5        6 1
   6        6        7 1
   7        7        8 2
   8        8        9 1
   9        9       10 2
  10       10        6 1
  11       10       11 1
  12       11       12 1
  13       12       13 ar
  14       13       14 ar
  15       14       15 1
  16       15       16 ar
  17       16       17 ar
  18       17       18 ar
  19       18       19 ar
  20       19       20 ar
  21       20       15 ar
  22       14       21 ar
  23       21       22 ar
  24       22       23 1
  25       23       24 1
  26       24       25 2
  27       25       26 1
  28       26       12 ar
  29       26       22 ar
  30       25       27 1
  31       27       28 1
  32       28       29 1
  33       29       30 1
  34       30       24 1
  35        5       31 ar
  36       31       32 ar
  37       32        2 ar
  38        1       33 1
  39        1       34 1
  40        1       35 1
  41        3       36 1
  42        4       37 1
  43       16       38 1
  44       18       39 1
  45       19       40 1
  46       27       41 1
  47       27       42 1
  48       28       43 1
  49       28       44 1
  50       29       45 1
  51       29       46 1
  52       30       47 1
  53       30       48 1
  54       31       49 1
  55       32       50 1

@<TRIPOS>MOLECULE

  50   55
SMALL
USER_CHARGES
@<TRIPOS>ATOM
   1 C1           3.3222    -5.6229    -0.1840 C.3          1    LIG   0.0000
   2 C2           2.7988    -4.1963    -0.1438 C.ar         1    LIG   0.0000
   3 C3           3.4112    -3.2211    -0.9248 C.ar         1    LIG   0.0000
   4 C4           2.9276    -1.9179    -0.8839 C.ar         1    LIG   0.0000
   5 C5           1.8451    -1.6027    -0.0684 C.ar         1    LIG   0.0000
   6 N6           1.3628    -0.2888    -0.0303 N.pl3        1    LIG   0.0000
   7 N7           2.0875     0.7995    -0.0330 N.2          1    LIG   0.0000
   8 N8           1.3300     1.8119     0.0053 N.2          1    LIG   0.0000
   9 N9           0.0778     1.4136     0.0379 N.2          1    LIG   0.0000
  10 C10          0.0642     0.1019     0.0199 C.2          1    LIG   0.0000
  11 S11         -1.3379    -0.9295     0.0478 S.3          1    LIG   0.0000
  12 C12         -1.6949    -1.1307    -1.6439 C.ar         1    LIG   0.0000
  13 N13         -1.1269    -2.1563    -2.3005 N.ar         1    LIG   0.0000
  14 C14         -1.3568    -2.3770    -3.6049 C.ar         1    LIG   0.0000
  15 C15         -0.7515    -3.4764    -4.3379 C.ar         1    LIG   0.0000
  16 C16          0.1069    -4.3617    -3.6940 C.ar         1    LIG   0.0000
  17 N17          0.6702    -5.3814    -4.3582 N.ar         1    LIG   0.0000
  18 C18          0.4193    -5.5733    -5.6617 C.ar         1    LIG   0.0000
  19 C19         -0.4372    -4.6992    -6.3231 C.ar         1    LIG   0.0000
  20 N20         -0.9918    -3.6836    -5.6430 N.ar         1    LIG   0.0000
  21 N21         -2.1724    -1.5703    -4.2845 N.ar         1    LIG   0.0000
  22 C22         -2.7134    -0.5701    -3.5865 C.ar         1    LIG   0.0000
  23 S23         -3.7811     0.5257    -4.3260 S.3          1    LIG   0.0000
  24 C24         -4.0446     1.4600    -2.9341 C.2          1    LIG   0.0000
  25 C25         -3.3080     0.9389    -1.9044 C.2          1    LIG   0.0000
  26 C26         -2.5542    -0.2254    -2.2584 C.ar         1    LIG   0.0000
  27 C27         -3.4666     1.7629    -0.6277 C.3          1    LIG   0.0000
  28 C28         -4.6971     2.6551    -0.6267 C.3          1    LIG   0.0000
  29 C29         -4.6375     3.5140    -1.8798 C.3          1    LIG   0.0000
  30 C30         -5.0016     2.6281    -3.0574 C.3          1    LIG   0.0000
  31 C31          1.2325    -2.5780     0.7116 C.ar         1    LIG   0.0000
  32 C32          1.7158    -3.8816     0.6701 C.ar         1    LIG   0.0000
  33 H            2.7774    -6.1953     0.4289 H            1    LIG   0.0000
  34 H            3.2556    -5.9763    -1.1171 H            1    LIG   0.0000
  35 H            4.2780    -5.6357     0.1098 H            1    LIG   0.0000
  36 H            4.1892    -3.4544    -1.5081 H            1    LIG   0.0000
  37 H            3.3579    -1.2072    -1.4405 H            1    LIG   0.0000
  38 H            0.3068    -4.2360    -2.7223 H            1    LIG   0.0000
  39 H            0.8426    -6.3352    -6.1519 H            1    LIG   0.0000
  40 H           -0.6375    -4.8260    -7.2946 H            1    LIG   0.0000
  41 H           -2.6573     2.3408    -0.5222 H            1    LIG   0.0000
  42 H           -3.5311     1.1348     0.1477 H            1    LIG   0.0000
  43 H           -4.6967     3.2369     0.1867 H            1    LIG   0.0000
  44 H           -5.5254     2.0949    -0.6354 H            1    LIG   0.0000
  45 H           -5.2882     4.2698    -1.8070 H            1    LIG   0.0000
  46 H           -3.7143     3.8792    -1.9998 H            1    LIG   0.0000
  47 H           -5.9508     2.3203    -2.9925 H            1    LIG   0.0000
  48 H           -4.8661     3.1108    -3.9226 H            1    LIG   0.0000
  49 H            0.4544    -2.3449     1.2948 H            1    LIG   0.0000
  50 H            1.2845    -4.5926     1.2255 H            1    LIG   0.0000
@<TRIPOS>BOND
   1        1        2 1
   2        2        3 ar
   3        3        4 ar
   4        4        5 ar
   5        5        6 1
   6        6        7 1
   7        7        8 2
   8        8        9 1
   9        9       10 2
  10       10        6 1
  11       10       11 1
  12       11       12 1
  13       12       13 ar
  14       13       14 ar
  15       14       15 1
  16       15       16 ar
  17       16       17 ar
  18       17       18 ar
  19       18       19 ar
  20       19       20 ar
  21       20       15 ar
  22       14       21 ar
  23       21       22 ar
  24       22       23 1
  25       23       24 1
  26       24       25 2
  27       25       26 1
  28       26       12 ar
  29       26       22 ar
  30       25       27 1
  31       27       28 1
  32       28       29 1
  33       29       30 1
  34       30       24 1
  35        5       31 ar
  36       31       32 ar
  37       32        2 ar
  38        1       33 1
  39        1       34 1
  40        1       35 1
  41        3       36 1
  42        4       37 1
  43       16       38 1
  44       18       39 1
  45       19       40 1
  46       27       41 1
  47       27       42 1
  48       28       43 1
  49       28       44 1
  50       29       45 1
  51       29       46 1
  52       30       47 1
  53       30       48 1
  54       31       49 1
  55       32       50 1

@<TRIPOS>MOLECULE

  50   55
SMALL
USER_CHARGES
@<TRIPOS>ATOM
   1 C1           3.3222    -5.6229    -0.1840 C.3          1    LIG   0.0000
   2 C2           2.7988    -4.1963    -0.1438 C.ar         1    LIG   0.0000
   3 C3           3.4112    -3.2211    -0.9248 C.ar         1    LIG   0.0000
   4 C4           2.9276    -1.9179    -0.8839 C.ar         1    LIG   0.0000
   5 C5           1.8451    -1.6027    -0.0684 C.ar         1    LIG   0.0000
   6 N6           1.3628    -0.2888    -0.0303 N.pl3        1    LIG   0.0000
   7 N7           2.0875     0.7995    -0.0330 N.2          1    LIG   0.0000
   8 N8           1.3300     1.8119     0.0053 N.2          1    LIG   0.0000
   9 N9           0.0778     1.4136     0.0379 N.2          1    LIG   0.0000
  10 C10          0.0642     0.1019     0.0199 C.2          1    LIG   0.0000
  11 S11         -1.3379    -0.9295     0.0478 S.3          1    LIG   0.0000
  12 C12         -1.5925    -1.1782     1.7516 C.ar         1    LIG   0.0000
  13 N13         -0.7496    -0.5901     2.6174 N.ar         1    LIG   0.0000
  14 C14         -0.8841    -0.7337     3.9457 C.ar         1    LIG   0.0000
  15 C15          0.0164    -0.1114     4.9019 C.ar         1    LIG   0.0000
  16 C16          1.0742     0.6769     4.4603 C.ar         1    LIG   0.0000
  17 N17          1.9109     1.2584     5.3320 N.ar         1    LIG   0.0000
  18 C18          1.7482     1.0943     6.6532 C.ar         1    LIG   0.0000
  19 C19          0.6957     0.3102     7.1145 C.ar         1    LIG   0.0000
  20 N20         -0.1319    -0.2649     6.2278 N.ar         1    LIG   0.0000
  21 N21         -1.8783    -1.4722     4.4397 N.ar         1    LIG   0.0000
  22 C22         -2.6889    -2.0312     3.5393 C.ar         1    LIG   0.0000
  23 S23         -4.0041    -2.9877     4.0316 S.3          1    LIG   0.0000
  24 C24         -4.5433    -3.3427     2.4622 C.2          1    LIG   0.0000
  25 C25         -3.7111    -2.7364     1.5599 C.2          1    LIG   0.0000
  26 C26         -2.6572    -1.9755     2.1595 C.ar         1    LIG   0.0000
  27 C27         -4.1165    -3.0533     0.1214 C.3          1    LIG   0.0000
  28 C28         -5.5460    -3.5517    -0.0135 C.3          1    LIG   0.0000
  29 C29         -5.7029    -4.7418     0.9196 C.3          1    LIG   0.0000
  30 C30         -5.7842    -4.2028     2.3362 C.3          1    LIG   0.0000
  31 C31          1.2325    -2.5780     0.7116 C.ar         1    LIG   0.0000
  32 C32          1.7158    -3.8816     0.6701 C.ar         1    LIG   0.0000
  33 H            2.7774    -6.1953     0.4289 H            1    LIG   0.0000
  34 H            3.2556    -5.9763    -1.1171 H            1    LIG   0.0000
  35 H            4.2780    -5.6357     0.1098 H            1    LIG   0.0000
  36 H            4.1892    -3.4544    -1.5081 H            1    LIG   0.0000
  37 H            3.3579    -1.2072    -1.4405 H            1    LIG   0.0000
  38 H            1.2125     0.8118     3.4792 H            1    LIG   0.0000
  39 H            2.3756     1.5300     7.2986 H            1    LIG   0.0000
  40 H            0.5572     0.1765     8.0958 H            1    LIG   0.0000
  41 H           -3.5015    -3.7581    -0.2322 H            1    LIG   0.0000
  42 H           -4.0192    -2.2213    -0.4248 H            1    LIG   0.0000
  43 H           -5.7227    -3.8317    -0.9571 H            1    LIG   0.0000
  44 H           -6.1861    -2.8282     0.2449 H            1    LIG   0.0000
  45 H           -6.5390    -5.2429     0.6964 H            1    LIG   0.0000
  46 H           -4.9152    -5.3514     0.8309 H            1    LIG   0.0000
  47 H           -6.6119    -3.6561     2.4632 H            1    LIG   0.0000
  48 H           -5.7713    -4.9479     3.0030 H            1    LIG   0.0000
  49 H            0.4544    -2.3449     1.2948 H            1    LIG   0.0000
  50 H            1.2845    -4.5926     1.2255 H            1    LIG   0.0000
@<TRIPOS>BOND
   1        1        2 1
   2        2        3 ar
   3        3        4 ar
   4        4        5 ar
   5        5        6 1
   6        6        7 1
   7        7        8 2
   8        8        9 1
   9        9       10 2
  10       10        6 1
  11       10       11 1
  12       11       12 1
  13       12       13 ar
  14       13       14 ar
  15       14       15 1
  16       15       16 ar
  17       16       17 ar
  18       17       18 ar
  19       18       19 ar
  20       19       20 ar
  21       20       15 ar
  22       14       21 ar
  23       21       22 ar
  24       22       23 1
  25       23       24 1
  26       24       25 2
  27       25       26 1
  28       26       12 ar
  29       26       22 ar
  30       25       27 1
  31       27       28 1
  32       28       29 1
  33       29       30 1
  34       30       24 1
  35        5       31 ar
  36       31       32 ar
  37       32        2 ar
  38        1       33 1
  39        1       34 1
  40        1       35 1
  41        3       36 1
  42        4       37 1
  43       16       38 1
  44       18       39 1
  45       19       40 1
  46       27       41 1
  47       27       42 1
  48       28       43 1
  49       28       44 1
  50       29       45 1
  51       29       46 1
  52       30       47 1
  53       30       48 1
  54       31       49 1
  55       32       50 1

@<TRIPOS>MOLECULE

  50   55
SMALL
USER_CHARGES
@<TRIPOS>ATOM
   1 C1           3.3203    -5.6236    -0.1836 C.3          1    LIG   0.0000
   2 C2           2.7978    -4.1968    -0.1422 C.ar         1    LIG   0.0000
   3 C3           3.4576    -3.2493     0.6343 C.ar         1    LIG   0.0000
   4 C4           2.9749    -1.9455     0.6679 C.ar         1    LIG   0.0000
   5 C5           1.8451    -1.6027    -0.0684 C.ar         1    LIG   0.0000
   6 N6           1.3628    -0.2888    -0.0303 N.pl3        1    LIG   0.0000
   7 N7           2.0875     0.7995    -0.0330 N.2          1    LIG   0.0000
   8 N8           1.3300     1.8119     0.0053 N.2          1    LIG   0.0000
   9 N9           0.0778     1.4136     0.0379 N.2          1    LIG   0.0000
  10 C10          0.0642     0.1019     0.0199 C.2          1    LIG   0.0000
  11 S11         -1.3379    -0.9295     0.0478 S.3          1    LIG   0.0000
  12 C12         -1.5925    -1.1782     1.7516 C.ar         1    LIG   0.0000
  13 N13         -0.9867    -2.2214     2.3438 N.ar         1    LIG   0.0000
  14 C14         -1.1334    -2.4756     3.6542 C.ar         1    LIG   0.0000
  15 C15         -0.4923    -3.5991     4.3167 C.ar         1    LIG   0.0000
  16 C16          0.3186    -4.4700     3.5960 C.ar         1    LIG   0.0000
  17 N17          0.9176    -5.5090     4.1956 N.ar         1    LIG   0.0000
  18 C18          0.7497    -5.7347     5.5070 C.ar         1    LIG   0.0000
  19 C19         -0.0568    -4.8744     6.2451 C.ar         1    LIG   0.0000
  20 N20         -0.6492    -3.8397     5.6286 N.ar         1    LIG   0.0000
  21 N21         -1.8932    -1.6796     4.4072 N.ar         1    LIG   0.0000
  22 C22         -2.4691    -0.6569     3.7727 C.ar         1    LIG   0.0000
  23 S23         -3.4537     0.4427     4.6147 S.3          1    LIG   0.0000
  24 C24         -3.8197     1.4010     3.2629 C.2          1    LIG   0.0000
  25 C25         -3.1955     0.8744     2.1641 C.2          1    LIG   0.0000
  26 C26         -2.4124    -0.2913     2.4419 C.ar         1    LIG   0.0000
  27 C27         -3.5207     1.6679     0.8997 C.3          1    LIG   0.0000
  28 C28         -4.0495     3.0658     1.1762 C.3          1    LIG   0.0000
  29 C29         -5.2429     2.9247     2.1076 C.3          1    LIG   0.0000
  30 C30         -4.7061     2.6082     3.4917 C.3          1    LIG   0.0000
  31 C31          1.1862    -2.5499    -0.8453 C.ar         1    LIG   0.0000
  32 C32          1.6694    -3.8536    -0.8794 C.ar         1    LIG   0.0000
  33 H            2.7387    -6.1744    -0.7823 H            1    LIG   0.0000
  34 H            4.2567    -5.6256    -0.5347 H            1    LIG   0.0000
  35 H            3.3094    -6.0096     0.7388 H            1    LIG   0.0000
  36 H            4.2687    -3.5027     1.1615 H            1    LIG   0.0000
  37 H            3.4397    -1.2543     1.2213 H            1    LIG   0.0000
  38 H            0.4567    -4.3190     2.6172 H            1    LIG   0.0000
  39 H            1.1986    -6.5115     5.9487 H            1    LIG   0.0000
  40 H           -0.1937    -5.0253     7.2242 H            1    LIG   0.0000
  41 H           -4.2120     1.1655     0.3805 H            1    LIG   0.0000
  42 H           -2.6867     1.7480     0.3538 H            1    LIG   0.0000
  43 H           -4.3330     3.4993     0.3209 H            1    LIG   0.0000
  44 H           -3.3399     3.6198     1.6116 H            1    LIG   0.0000
  45 H           -5.7617     3.7793     2.1298 H            1    LIG   0.0000
  46 H           -5.8355     2.1830     1.7934 H            1    LIG   0.0000
  47 H           -4.1773     3.3759     3.8537 H            1    LIG   0.0000
  48 H           -5.4510     2.3899     4.1222 H            1    LIG   0.0000
  49 H            0.3752    -2.2966    -1.3727 H            1    LIG   0.0000
  50 H            1.2055    -4.5444    -1.4340 H            1    LIG   0.0000
@<TRIPOS>BOND
   1        1        2 1
   2        2        3 ar
   3        3        4 ar
   4        4        5 ar
   5        5        6 1
   6        6        7 1
   7        7        8 2
   8        8        9 1
   9        9       10 2
  10       10        6 1
  11       10       11 1
  12       11       12 1
  13       12       13 ar
  14       13       14 ar
  15       14       15 1
  16       15       16 ar
  17       16       17 ar
  18       17       18 ar
  19       18       19 ar
  20       19       20 ar
  21       20       15 ar
  22       14       21 ar
  23       21       22 ar
  24       22       23 1
  25       23       24 1
  26       24       25 2
  27       25       26 1
  28       26       12 ar
  29       26       22 ar
  30       25       27 1
  31       27       28 1
  32       28       29 1
  33       29       30 1
  34       30       24 1
  35        5       31 ar
  36       31       32 ar
  37       32        2 ar
  38        1       33 1
  39        1       34 1
  40        1       35 1
  41        3       36 1
  42        4       37 1
  43       16       38 1
  44       18       39 1
  45       19       40 1
  46       27       41 1
  47       27       42 1
  48       28       43 1
  49       28       44 1
  50       29       45 1
  51       29       46 1
  52       30       47 1
  53       30       48 1
  54       31       49 1
  55       32       50 1

@<TRIPOS>MOLECULE

  50   55
SMALL
USER_CHARGES
@<TRIPOS>ATOM
   1 C1           3.3198    -5.6238    -0.1858 C.3          1    LIG   0.0000
   2 C2           2.7961    -4.1974    -0.1433 C.ar         1    LIG   0.0000
   3 C3           1.8579    -3.8420     0.8209 C.ar         1    LIG   0.0000
   4 C4           1.3828    -2.5354     0.8549 C.ar         1    LIG   0.0000
   5 C5           1.8451    -1.6027    -0.0684 C.ar         1    LIG   0.0000
   6 N6           1.3628    -0.2888    -0.0303 N.pl3        1    LIG   0.0000
   7 N7           2.0875     0.7995    -0.0330 N.2          1    LIG   0.0000
   8 N8           1.3300     1.8119     0.0053 N.2          1    LIG   0.0000
   9 N9           0.0778     1.4136     0.0379 N.2          1    LIG   0.0000
  10 C10          0.0642     0.1019     0.0199 C.2          1    LIG   0.0000
  11 S11         -1.3379    -0.9295     0.0478 S.3          1    LIG   0.0000
  12 C12         -2.6488     0.2134     0.1034 C.ar         1    LIG   0.0000
  13 N13         -2.3588     1.5260     0.1130 N.ar         1    LIG   0.0000
  14 C14         -3.3055     2.4801     0.1524 C.ar         1    LIG   0.0000
  15 C15         -3.0124     3.9035     0.1627 C.ar         1    LIG   0.0000
  16 C16         -4.0463     4.8333     0.2072 C.ar         1    LIG   0.0000
  17 N17         -3.7894     6.1493     0.2193 N.ar         1    LIG   0.0000
  18 C18         -2.5274     6.6025     0.1890 C.ar         1    LIG   0.0000
  19 C19         -1.4797     5.6883     0.1452 C.ar         1    LIG   0.0000
  20 N20         -1.7551     4.3746     0.1331 N.ar         1    LIG   0.0000
  21 N21         -4.5950     2.1337     0.1857 N.ar         1    LIG   0.0000
  22 C22         -4.8381     0.8259     0.1904 C.ar         1    LIG   0.0000
  23 S23         -6.4426     0.2372     0.2629 S.3          1    LIG   0.0000
  24 C24         -6.0319    -1.4050     0.2142 C.2          1    LIG   0.0000
  25 C25         -4.6711    -1.4938     0.1261 C.2          1    LIG   0.0000
  26 C26         -3.9612    -0.2474     0.1280 C.ar         1    LIG   0.0000
  27 C27         -4.1910    -2.9386     0.0160 C.3          1    LIG   0.0000
  28 C28         -5.1770    -3.9867     0.5141 C.3          1    LIG   0.0000
  29 C29         -6.5003    -3.7559    -0.1908 C.3          1    LIG   0.0000
  30 C30         -7.1208    -2.4580     0.2847 C.3          1    LIG   0.0000
  31 C31          2.7836    -1.9580    -1.0316 C.ar         1    LIG   0.0000
  32 C32          3.2593    -3.2646    -1.0651 C.ar         1    LIG   0.0000
  33 H            3.9812    -5.7139    -0.9304 H            1    LIG   0.0000
  34 H            3.7642    -5.8418     0.6831 H            1    LIG   0.0000
  35 H            2.5585    -6.2540    -0.3382 H            1    LIG   0.0000
  36 H            1.5295    -4.5175     1.4811 H            1    LIG   0.0000
  37 H            0.7088    -2.2662     1.5429 H            1    LIG   0.0000
  38 H           -4.9943     4.5158     0.2304 H            1    LIG   0.0000
  39 H           -2.3419     7.5851     0.1978 H            1    LIG   0.0000
  40 H           -0.5319     6.0064     0.1231 H            1    LIG   0.0000
  41 H           -3.3495    -3.0268     0.5489 H            1    LIG   0.0000
  42 H           -3.9974    -3.1282    -0.9466 H            1    LIG   0.0000
  43 H           -5.2985    -3.8960     1.5026 H            1    LIG   0.0000
  44 H           -4.8349    -4.9023     0.3030 H            1    LIG   0.0000
  45 H           -6.3458    -3.7071    -1.1776 H            1    LIG   0.0000
  46 H           -7.1204    -4.5136     0.0125 H            1    LIG   0.0000
  47 H           -7.8854    -2.2038    -0.3076 H            1    LIG   0.0000
  48 H           -7.4460    -2.5554     1.2254 H            1    LIG   0.0000
  49 H            3.1123    -1.2825    -1.6917 H            1    LIG   0.0000
  50 H            3.9344    -3.5334    -1.7521 H            1    LIG   0.0000
@<TRIPOS>BOND
   1        1        2 1
   2        2        3 ar
   3        3        4 ar
   4        4        5 ar
   5        5        6 1
   6        6        7 1
   7        7        8 2
   8        8        9 1
   9        9       10 2
  10       10        6 1
  11       10       11 1
  12       11       12 1
  13       12       13 ar
  14       13       14 ar
  15       14       15 1
  16       15       16 ar
  17       16       17 ar
  18       17       18 ar
  19       18       19 ar
  20       19       20 ar
  21       20       15 ar
  22       14       21 ar
  23       21       22 ar
  24       22       23 1
  25       23       24 1
  26       24       25 2
  27       25       26 1
  28       26       12 ar
  29       26       22 ar
  30       25       27 1
  31       27       28 1
  32       28       29 1
  33       29       30 1
  34       30       24 1
  35        5       31 ar
  36       31       32 ar
  37       32        2 ar
  38        1       33 1
  39        1       34 1
  40        1       35 1
  41        3       36 1
  42        4       37 1
  43       16       38 1
  44       18       39 1
  45       19       40 1
  46       27       41 1
  47       27       42 1
  48       28       43 1
  49       28       44 1
  50       29       45 1
  51       29       46 1
  52       30       47 1
  53       30       48 1
  54       31       49 1
  55       32       50 1

@<TRIPOS>MOLECULE

  50   55
SMALL
USER_CHARGES
@<TRIPOS>ATOM
   1 C1           3.3198    -5.6238    -0.1858 C.3          1    LIG   0.0000
   2 C2           2.7961    -4.1974    -0.1433 C.ar         1    LIG   0.0000
   3 C3           1.8579    -3.8420     0.8209 C.ar         1    LIG   0.0000
   4 C4           1.3828    -2.5354     0.8549 C.ar         1    LIG   0.0000
   5 C5           1.8451    -1.6027    -0.0684 C.ar         1    LIG   0.0000
   6 N6           1.3628    -0.2888    -0.0303 N.pl3        1    LIG   0.0000
   7 N7           2.0875     0.7995    -0.0330 N.2          1    LIG   0.0000
   8 N8           1.3300     1.8119     0.0053 N.2          1    LIG   0.0000
   9 N9           0.0778     1.4136     0.0379 N.2          1    LIG   0.0000
  10 C10          0.0642     0.1019     0.0199 C.2          1    LIG   0.0000
  11 S11         -1.3379    -0.9295     0.0478 S.3          1    LIG   0.0000
  12 C12         -2.6488     0.2134     0.1034 C.ar         1    LIG   0.0000
  13 N13         -3.1695     0.6529    -1.0554 N.ar         1    LIG   0.0000
  14 C14         -4.1845     1.5332    -1.1095 C.ar         1    LIG   0.0000
  15 C15         -4.7615     2.0196    -2.3517 C.ar         1    LIG   0.0000
  16 C16         -5.8099     2.9337    -2.3287 C.ar         1    LIG   0.0000
  17 N17         -6.3497     3.3919    -3.4674 N.ar         1    LIG   0.0000
  18 C18         -5.8912     2.9798    -4.6586 C.ar         1    LIG   0.0000
  19 C19         -4.8427     2.0665    -4.7024 C.ar         1    LIG   0.0000
  20 N20         -4.3147     1.6179    -3.5528 N.ar         1    LIG   0.0000
  21 N21         -4.7129     2.0064     0.0221 N.ar         1    LIG   0.0000
  22 C22         -4.1590     1.5584     1.1455 C.ar         1    LIG   0.0000
  23 S23         -4.7137     2.1033     2.6691 S.3          1    LIG   0.0000
  24 C24         -3.6464     1.1670     3.5923 C.2          1    LIG   0.0000
  25 C25         -2.8830     0.4306     2.7307 C.2          1    LIG   0.0000
  26 C26         -3.1354     0.6412     1.3344 C.ar         1    LIG   0.0000
  27 C27         -1.9191    -0.5002     3.4618 C.3          1    LIG   0.0000
  28 C28         -1.6114    -0.1101     4.9013 C.3          1    LIG   0.0000
  29 C29         -2.9301     0.0561     5.6325 C.3          1    LIG   0.0000
  30 C30         -3.6651     1.2715     5.1049 C.3          1    LIG   0.0000
  31 C31          2.7836    -1.9580    -1.0316 C.ar         1    LIG   0.0000
  32 C32          3.2593    -3.2646    -1.0651 C.ar         1    LIG   0.0000
  33 H            3.9812    -5.7139    -0.9304 H            1    LIG   0.0000
  34 H            3.7642    -5.8418     0.6831 H            1    LIG   0.0000
  35 H            2.5585    -6.2540    -0.3382 H            1    LIG   0.0000
  36 H            1.5295    -4.5175     1.4811 H            1    LIG   0.0000
  37 H            0.7088    -2.2662     1.5429 H            1    LIG   0.0000
  38 H           -6.1660     3.2535    -1.4506 H            1    LIG   0.0000
  39 H           -6.2980     3.3246    -5.5045 H            1    LIG   0.0000
  40 H           -4.4863     1.7478    -5.5807 H            1    LIG   0.0000
  41 H           -1.0577    -0.5151     2.9540 H            1    LIG   0.0000
  42 H           -2.3184    -1.4170     3.4679 H            1    LIG   0.0000
  43 H           -1.1027     0.7506     4.9186 H            1    LIG   0.0000
  44 H           -1.0685    -0.8270     5.3388 H            1    LIG   0.0000
  45 H           -3.4925    -0.7585     5.4906 H            1    LIG   0.0000
  46 H           -2.7543     0.1737     6.6099 H            1    LIG   0.0000
  47 H           -4.6077     1.2764     5.4387 H            1    LIG   0.0000
  48 H           -3.2032     2.1084     5.3987 H            1    LIG   0.0000
  49 H            3.1123    -1.2825    -1.6917 H            1    LIG   0.0000
  50 H            3.9344    -3.5334    -1.7521 H            1    LIG   0.0000
@<TRIPOS>BOND
   1        1        2 1
   2        2        3 ar
   3        3        4 ar
   4        4        5 ar
   5        5        6 1
   6        6        7 1
   7        7        8 2
   8        8        9 1
   9        9       10 2
  10       10        6 1
  11       10       11 1
  12       11       12 1
  13       12       13 ar
  14       13       14 ar
  15       14       15 1
  16       15       16 ar
  17       16       17 ar
  18       17       18 ar
  19       18       19 ar
  20       19       20 ar
  21       20       15 ar
  22       14       21 ar
  23       21       22 ar
  24       22       23 1
  25       23       24 1
  26       24       25 2
  27       25       26 1
  28       26       12 ar
  29       26       22 ar
  30       25       27 1
  31       27       28 1
  32       28       29 1
  33       29       30 1
  34       30       24 1
  35        5       31 ar
  36       31       32 ar
  37       32        2 ar
  38        1       33 1
  39        1       34 1
  40        1       35 1
  41        3       36 1
  42        4       37 1
  43       16       38 1
  44       18       39 1
  45       19       40 1
  46       27       41 1
  47       27       42 1
  48       28       43 1
  49       28       44 1
  50       29       45 1
  51       29       46 1
  52       30       47 1
  53       30       48 1
  54       31       49 1
  55       32       50 1

@<TRIPOS>MOLECULE

  50   55
SMALL
USER_CHARGES
@<TRIPOS>ATOM
   1 C1           3.3198    -5.6238    -0.1858 C.3          1    LIG   0.0000
   2 C2           2.7961    -4.1974    -0.1433 C.ar         1    LIG   0.0000
   3 C3           1.8579    -3.8420     0.8209 C.ar         1    LIG   0.0000
   4 C4           1.3828    -2.5354     0.8549 C.ar         1    LIG   0.0000
   5 C5           1.8451    -1.6027    -0.0684 C.ar         1    LIG   0.0000
   6 N6           1.3628    -0.2888    -0.0303 N.pl3        1    LIG   0.0000
   7 N7           2.0875     0.7995    -0.0330 N.2          1    LIG   0.0000
   8 N8           1.3300     1.8119     0.0053 N.2          1    LIG   0.0000
   9 N9           0.0778     1.4136     0.0379 N.2          1    LIG   0.0000
  10 C10          0.0642     0.1019     0.0199 C.2          1    LIG   0.0000
  11 S11         -1.3379    -0.9295     0.0478 S.3          1    LIG   0.0000
  12 C12         -2.6488     0.2134     0.1034 C.ar         1    LIG   0.0000
  13 N13         -3.0983     0.6198     1.3033 N.ar         1    LIG   0.0000
  14 C14         -4.1042     1.5012     1.4431 C.ar         1    LIG   0.0000
  15 C15         -4.6037     1.9534     2.7308 C.ar         1    LIG   0.0000
  16 C16         -5.6512     2.8665     2.7967 C.ar         1    LIG   0.0000
  17 N17         -6.1228     3.2901     3.9783 N.ar         1    LIG   0.0000
  18 C18         -5.5956     2.8430     5.1277 C.ar         1    LIG   0.0000
  19 C19         -4.5480     1.9287     5.0827 C.ar         1    LIG   0.0000
  20 N20         -4.0880     1.5160     3.8912 N.ar         1    LIG   0.0000
  21 N21         -4.6984     2.0068     0.3590 N.ar         1    LIG   0.0000
  22 C22         -4.2342     1.5671    -0.8075 C.ar         1    LIG   0.0000
  23 S23         -4.9217     2.1052    -2.2785 S.3          1    LIG   0.0000
  24 C24         -3.8953     1.2162    -3.2904 C.2          1    LIG   0.0000
  25 C25         -3.0218     0.5256    -2.4982 C.2          1    LIG   0.0000
  26 C26         -3.1971     0.6879    -1.0838 C.ar         1    LIG   0.0000
  27 C27         -2.0056    -0.2700    -3.3133 C.3          1    LIG   0.0000
  28 C28         -2.4193    -0.5676    -4.7483 C.3          1    LIG   0.0000
  29 C29         -2.7972     0.7453    -5.4076 C.3          1    LIG   0.0000
  30 C30         -4.0740     1.2838    -4.7947 C.3          1    LIG   0.0000
  31 C31          2.7836    -1.9580    -1.0316 C.ar         1    LIG   0.0000
  32 C32          3.2593    -3.2646    -1.0651 C.ar         1    LIG   0.0000
  33 H            3.9812    -5.7139    -0.9304 H            1    LIG   0.0000
  34 H            3.7642    -5.8418     0.6831 H            1    LIG   0.0000
  35 H            2.5585    -6.2540    -0.3382 H            1    LIG   0.0000
  36 H            1.5295    -4.5175     1.4811 H            1    LIG   0.0000
  37 H            0.7088    -2.2662     1.5429 H            1    LIG   0.0000
  38 H           -6.0581     3.2119     1.9510 H            1    LIG   0.0000
  39 H           -5.9512     3.1627     6.0059 H            1    LIG   0.0000
  40 H           -4.1422     1.5829     5.9287 H            1    LIG   0.0000
  41 H           -1.8500    -1.1416    -2.8486 H            1    LIG   0.0000
  42 H           -1.1526     0.2513    -3.3386 H            1    LIG   0.0000
  43 H           -3.2032    -1.1884    -4.7539 H            1    LIG   0.0000
  44 H           -1.6575    -0.9881    -5.2411 H            1    LIG   0.0000
  45 H           -2.0602     1.4077    -5.2731 H            1    LIG   0.0000
  46 H           -2.9369     0.5963    -6.3865 H            1    LIG   0.0000
  47 H           -4.2223     2.2301    -5.0822 H            1    LIG   0.0000
  48 H           -4.8539     0.7242    -5.0749 H            1    LIG   0.0000
  49 H            3.1123    -1.2825    -1.6917 H            1    LIG   0.0000
  50 H            3.9344    -3.5334    -1.7521 H            1    LIG   0.0000
@<TRIPOS>BOND
   1        1        2 1
   2        2        3 ar
   3        3        4 ar
   4        4        5 ar
   5        5        6 1
   6        6        7 1
   7        7        8 2
   8        8        9 1
   9        9       10 2
  10       10        6 1
  11       10       11 1
  12       11       12 1
  13       12       13 ar
  14       13       14 ar
  15       14       15 1
  16       15       16 ar
  17       16       17 ar
  18       17       18 ar
  19       18       19 ar
  20       19       20 ar
  21       20       15 ar
  22       14       21 ar
  23       21       22 ar
  24       22       23 1
  25       23       24 1
  26       24       25 2
  27       25       26 1
  28       26       12 ar
  29       26       22 ar
  30       25       27 1
  31       27       28 1
  32       28       29 1
  33       29       30 1
  34       30       24 1
  35        5       31 ar
  36       31       32 ar
  37       32        2 ar
  38        1       33 1
  39        1       34 1
  40        1       35 1
  41        3       36 1
  42        4       37 1
  43       16       38 1
  44       18       39 1
  45       19       40 1
  46       27       41 1
  47       27       42 1
  48       28       43 1
  49       28       44 1
  50       29       45 1
  51       29       46 1
  52       30       47 1
  53       30       48 1
  54       31       49 1
  55       32       50 1

@<TRIPOS>MOLECULE

  50   55
SMALL
USER_CHARGES
@<TRIPOS>ATOM
   1 C1           3.3198    -5.6238    -0.1858 C.3          1    LIG   0.0000
   2 C2           2.7961    -4.1974    -0.1433 C.ar         1    LIG   0.0000
   3 C3           1.8579    -3.8420     0.8209 C.ar         1    LIG   0.0000
   4 C4           1.3828    -2.5354     0.8549 C.ar         1    LIG   0.0000
   5 C5           1.8451    -1.6027    -0.0684 C.ar         1    LIG   0.0000
   6 N6           1.3628    -0.2888    -0.0303 N.pl3        1    LIG   0.0000
   7 N7           2.0875     0.7995    -0.0330 N.2          1    LIG   0.0000
   8 N8           1.3300     1.8119     0.0053 N.2          1    LIG   0.0000
   9 N9           0.0778     1.4136     0.0379 N.2          1    LIG   0.0000
  10 C10          0.0642     0.1019     0.0199 C.2          1    LIG   0.0000
  11 S11         -1.3379    -0.9295     0.0478 S.3          1    LIG   0.0000
  12 C12         -1.6948    -1.1306    -1.6434 C.ar         1    LIG   0.0000
  13 N13         -0.9072    -0.5191    -2.5449 N.ar         1    LIG   0.0000
  14 C14         -1.1052    -0.6197    -3.8711 C.ar         1    LIG   0.0000
  15 C15         -0.2648     0.0327    -4.8612 C.ar         1    LIG   0.0000
  16 C16         -0.5335    -0.1154    -6.2181 C.ar         1    LIG   0.0000
  17 N17          0.2327     0.4829    -7.1416 N.ar         1    LIG   0.0000
  18 C18          1.2787     1.2403    -6.7794 C.ar         1    LIG   0.0000
  19 C19          1.5632     1.4013    -5.4272 C.ar         1    LIG   0.0000
  20 N20          0.7861     0.7947    -4.5163 N.ar         1    LIG   0.0000
  21 N21         -2.1215    -1.3509    -4.3362 N.ar         1    LIG   0.0000
  22 C22         -2.8852    -1.9261    -3.4114 C.ar         1    LIG   0.0000
  23 S23         -4.2414    -2.8663    -3.8616 S.3          1    LIG   0.0000
  24 C24         -4.7029    -3.2792    -2.2853 C.2          1    LIG   0.0000
  25 C25         -3.8078    -2.7093    -1.4243 C.2          1    LIG   0.0000
  26 C26         -2.7736    -1.9201    -2.0285 C.ar         1    LIG   0.0000
  27 C27         -4.0960    -3.0673     0.0313 C.3          1    LIG   0.0000
  28 C28         -5.5206    -3.5250     0.3141 C.3          1    LIG   0.0000
  29 C29         -5.8458    -4.6577    -0.6412 C.3          1    LIG   0.0000
  30 C30         -5.9376    -4.1297    -2.0584 C.3          1    LIG   0.0000
  31 C31          2.7836    -1.9580    -1.0316 C.ar         1    LIG   0.0000
  32 C32          3.2593    -3.2646    -1.0651 C.ar         1    LIG   0.0000
  33 H            3.9812    -5.7139    -0.9304 H            1    LIG   0.0000
  34 H            3.7642    -5.8418     0.6831 H            1    LIG   0.0000
  35 H            2.5585    -6.2540    -0.3382 H            1    LIG   0.0000
  36 H            1.5295    -4.5175     1.4811 H            1    LIG   0.0000
  37 H            0.7088    -2.2662     1.5429 H            1    LIG   0.0000
  38 H           -1.3090    -0.6759    -6.5088 H            1    LIG   0.0000
  39 H            1.8469     1.6837    -7.4727 H            1    LIG   0.0000
  40 H            2.3382     1.9628    -5.1371 H            1    LIG   0.0000
  41 H           -3.9135    -2.2590     0.5911 H            1    LIG   0.0000
  42 H           -3.4751    -3.8045     0.2978 H            1    LIG   0.0000
  43 H           -6.1560    -2.7664     0.1700 H            1    LIG   0.0000
  44 H           -5.5931    -3.8458     1.2584 H            1    LIG   0.0000
  45 H           -5.1257    -5.3498    -0.5916 H            1    LIG   0.0000
  46 H           -6.7206    -5.0678    -0.3831 H            1    LIG   0.0000
  47 H           -5.9578    -4.8890    -2.7088 H            1    LIG   0.0000
  48 H           -6.7629    -3.5756    -2.1672 H            1    LIG   0.0000
  49 H            3.1123    -1.2825    -1.6917 H            1    LIG   0.0000
  50 H            3.9344    -3.5334    -1.7521 H            1    LIG   0.0000
@<TRIPOS>BOND
   1        1        2 1
   2        2        3 ar
   3        3        4 ar
   4        4        5 ar
   5        5        6 1
   6        6        7 1
   7        7        8 2
   8        8        9 1
   9        9       10 2
  10       10        6 1
  11       10       11 1
  12       11       12 1
  13       12       13 ar
  14       13       14 ar
  15       14       15 1
  16       15       16 ar
  17       16       17 ar
  18       17       18 ar
  19       18       19 ar
  20       19       20 ar
  21       20       15 ar
  22       14       21 ar
  23       21       22 ar
  24       22       23 1
  25       23       24 1
  26       24       25 2
  27       25       26 1
  28       26       12 ar
  29       26       22 ar
  30       25       27 1
  31       27       28 1
  32       28       29 1
  33       29       30 1
  34       30       24 1
  35        5       31 ar
  36       31       32 ar
  37       32        2 ar
  38        1       33 1
  39        1       34 1
  40        1       35 1
  41        3       36 1
  42        4       37 1
  43       16       38 1
  44       18       39 1
  45       19       40 1
  46       27       41 1
  47       27       42 1
  48       28       43 1
  49       28       44 1
  50       29       45 1
  51       29       46 1
  52       30       47 1
  53       30       48 1
  54       31       49 1
  55       32       50 1

@<TRIPOS>MOLECULE

  50   55
SMALL
USER_CHARGES
@<TRIPOS>ATOM
   1 C1           3.3198    -5.6238    -0.1858 C.3          1    LIG   0.0000
   2 C2           2.7961    -4.1974    -0.1433 C.ar         1    LIG   0.0000
   3 C3           1.8579    -3.8420     0.8209 C.ar         1    LIG   0.0000
   4 C4           1.3828    -2.5354     0.8549 C.ar         1    LIG   0.0000
   5 C5           1.8451    -1.6027    -0.0684 C.ar         1    LIG   0.0000
   6 N6           1.3628    -0.2888    -0.0303 N.pl3        1    LIG   0.0000
   7 N7           2.0875     0.7995    -0.0330 N.2          1    LIG   0.0000
   8 N8           1.3300     1.8119     0.0053 N.2          1    LIG   0.0000
   9 N9           0.0778     1.4136     0.0379 N.2          1    LIG   0.0000
  10 C10          0.0642     0.1019     0.0199 C.2          1    LIG   0.0000
  11 S11         -1.3379    -0.9295     0.0478 S.3          1    LIG   0.0000
  12 C12         -1.6948    -1.1306    -1.6434 C.ar         1    LIG   0.0000
  13 N13         -1.1284    -2.1555    -2.3036 N.ar         1    LIG   0.0000
  14 C14         -1.3480    -2.3901    -3.6093 C.ar         1    LIG   0.0000
  15 C15         -0.7460    -3.4926    -4.3404 C.ar         1    LIG   0.0000
  16 C16         -1.0185    -3.6705    -5.6929 C.ar         1    LIG   0.0000
  17 N17         -0.4680    -4.6822    -6.3794 N.ar         1    LIG   0.0000
  18 C18          0.3605    -5.5489    -5.7782 C.ar         1    LIG   0.0000
  19 C19          0.6460    -5.3872    -4.4263 C.ar         1    LIG   0.0000
  20 N20          0.0856    -4.3693    -3.7543 N.ar         1    LIG   0.0000
  21 N21         -2.1577    -1.5839    -4.3009 N.ar         1    LIG   0.0000
  22 C22         -2.6850    -0.5738    -3.6144 C.ar         1    LIG   0.0000
  23 S23         -3.7159     0.5566    -4.3796 S.3          1    LIG   0.0000
  24 C24         -4.0143     1.4891    -2.9977 C.2          1    LIG   0.0000
  25 C25         -3.3371     0.9213    -1.9554 C.2          1    LIG   0.0000
  26 C26         -2.5585    -0.2406    -2.2736 C.ar         1    LIG   0.0000
  27 C27         -3.5837     1.6519    -0.6381 C.3          1    LIG   0.0000
  28 C28         -4.0757     3.0863    -0.7772 C.3          1    LIG   0.0000
  29 C29         -5.2971     3.0763    -1.6768 C.3          1    LIG   0.0000
  30 C30         -4.8940     2.7205    -3.0933 C.3          1    LIG   0.0000
  31 C31          2.7836    -1.9580    -1.0316 C.ar         1    LIG   0.0000
  32 C32          3.2593    -3.2646    -1.0651 C.ar         1    LIG   0.0000
  33 H            3.9812    -5.7139    -0.9304 H            1    LIG   0.0000
  34 H            3.7642    -5.8418     0.6831 H            1    LIG   0.0000
  35 H            2.5585    -6.2540    -0.3382 H            1    LIG   0.0000
  36 H            1.5295    -4.5175     1.4811 H            1    LIG   0.0000
  37 H            0.7088    -2.2662     1.5429 H            1    LIG   0.0000
  38 H           -1.6335    -3.0350    -6.1597 H            1    LIG   0.0000
  39 H            0.7677    -6.3018    -6.2952 H            1    LIG   0.0000
  40 H            1.2619    -6.0224    -3.9602 H            1    LIG   0.0000
  41 H           -2.7244     1.6674    -0.1268 H            1    LIG   0.0000
  42 H           -4.2692     1.1380    -0.1224 H            1    LIG   0.0000
  43 H           -3.3592     3.6532    -1.1838 H            1    LIG   0.0000
  44 H           -4.3190     3.4506     0.1218 H            1    LIG   0.0000
  45 H           -5.9517     2.4000    -1.3389 H            1    LIG   0.0000
  46 H           -5.7206     3.9822    -1.6705 H            1    LIG   0.0000
  47 H           -5.7053     2.5230    -3.6436 H            1    LIG   0.0000
  48 H           -4.3862     3.4759    -3.5075 H            1    LIG   0.0000
  49 H            3.1123    -1.2825    -1.6917 H            1    LIG   0.0000
  50 H            3.9344    -3.5334    -1.7521 H            1    LIG   0.0000
@<TRIPOS>BOND
   1        1        2 1
   2        2        3 ar
   3        3        4 ar
   4        4        5 ar
   5        5        6 1
   6        6        7 1
   7        7        8 2
   8        8        9 1
   9        9       10 2
  10       10        6 1
  11       10       11 1
  12       11       12 1
  13       12       13 ar
  14       13       14 ar
  15       14       15 1
  16       15       16 ar
  17       16       17 ar
  18       17       18 ar
  19       18       19 ar
  20       19       20 ar
  21       20       15 ar
  22       14       21 ar
  23       21       22 ar
  24       22       23 1
  25       23       24 1
  26       24       25 2
  27       25       26 1
  28       26       12 ar
  29       26       22 ar
  30       25       27 1
  31       27       28 1
  32       28       29 1
  33       29       30 1
  34       30       24 1
  35        5       31 ar
  36       31       32 ar
  37       32        2 ar
  38        1       33 1
  39        1       34 1
  40        1       35 1
  41        3       36 1
  42        4       37 1
  43       16       38 1
  44       18       39 1
  45       19       40 1
  46       27       41 1
  47       27       42 1
  48       28       43 1
  49       28       44 1
  50       29       45 1
  51       29       46 1
  52       30       47 1
  53       30       48 1
  54       31       49 1
  55       32       50 1

@<TRIPOS>MOLECULE

  50   55
SMALL
USER_CHARGES
@<TRIPOS>ATOM
   1 C1           3.3198    -5.6238    -0.1858 C.3          1    LIG   0.0000
   2 C2           2.7961    -4.1974    -0.1433 C.ar         1    LIG   0.0000
   3 C3           1.8579    -3.8420     0.8209 C.ar         1    LIG   0.0000
   4 C4           1.3828    -2.5354     0.8549 C.ar         1    LIG   0.0000
   5 C5           1.8451    -1.6027    -0.0684 C.ar         1    LIG   0.0000
   6 N6           1.3628    -0.2888    -0.0303 N.pl3        1    LIG   0.0000
   7 N7           2.0875     0.7995    -0.0330 N.2          1    LIG   0.0000
   8 N8           1.3300     1.8119     0.0053 N.2          1    LIG   0.0000
   9 N9           0.0778     1.4136     0.0379 N.2          1    LIG   0.0000
  10 C10          0.0642     0.1019     0.0199 C.2          1    LIG   0.0000
  11 S11         -1.3379    -0.9295     0.0478 S.3          1    LIG   0.0000
  12 C12         -1.5925    -1.1782     1.7516 C.ar         1    LIG   0.0000
  13 N13         -0.7496    -0.5901     2.6174 N.ar         1    LIG   0.0000
  14 C14         -0.8841    -0.7337     3.9457 C.ar         1    LIG   0.0000
  15 C15          0.0164    -0.1114     4.9019 C.ar         1    LIG   0.0000
  16 C16         -0.1709    -0.2982     6.2676 C.ar         1    LIG   0.0000
  17 N17          0.6539     0.2685     7.1601 N.ar         1    LIG   0.0000
  18 C18          1.6816     1.0305     6.7575 C.ar         1    LIG   0.0000
  19 C19          1.8861     1.2285     5.3958 C.ar         1    LIG   0.0000
  20 N20          1.0503     0.6541     4.5163 N.ar         1    LIG   0.0000
  21 N21         -1.8783    -1.4722     4.4397 N.ar         1    LIG   0.0000
  22 C22         -2.6889    -2.0312     3.5393 C.ar         1    LIG   0.0000
  23 S23         -4.0041    -2.9877     4.0316 S.3          1    LIG   0.0000
  24 C24         -4.5433    -3.3427     2.4622 C.2          1    LIG   0.0000
  25 C25         -3.7111    -2.7364     1.5599 C.2          1    LIG   0.0000
  26 C26         -2.6572    -1.9755     2.1595 C.ar         1    LIG   0.0000
  27 C27         -4.1165    -3.0533     0.1214 C.3          1    LIG   0.0000
  28 C28         -5.5460    -3.5517    -0.0135 C.3          1    LIG   0.0000
  29 C29         -5.7029    -4.7418     0.9196 C.3          1    LIG   0.0000
  30 C30         -5.7842    -4.2028     2.3362 C.3          1    LIG   0.0000
  31 C31          2.7836    -1.9580    -1.0316 C.ar         1    LIG   0.0000
  32 C32          3.2593    -3.2646    -1.0651 C.ar         1    LIG   0.0000
  33 H            3.9812    -5.7139    -0.9304 H            1    LIG   0.0000
  34 H            3.7642    -5.8418     0.6831 H            1    LIG   0.0000
  35 H            2.5585    -6.2540    -0.3382 H            1    LIG   0.0000
  36 H            1.5295    -4.5175     1.4811 H            1    LIG   0.0000
  37 H            0.7088    -2.2662     1.5429 H            1    LIG   0.0000
  38 H           -0.9313    -0.8630     6.5883 H            1    LIG   0.0000
  39 H            2.2932     1.4509     7.4277 H            1    LIG   0.0000
  40 H            2.6472     1.7925     5.0756 H            1    LIG   0.0000
  41 H           -3.5015    -3.7581    -0.2322 H            1    LIG   0.0000
  42 H           -4.0192    -2.2213    -0.4248 H            1    LIG   0.0000
  43 H           -5.7227    -3.8317    -0.9571 H            1    LIG   0.0000
  44 H           -6.1861    -2.8282     0.2449 H            1    LIG   0.0000
  45 H           -6.5390    -5.2429     0.6964 H            1    LIG   0.0000
  46 H           -4.9152    -5.3514     0.8309 H            1    LIG   0.0000
  47 H           -6.6119    -3.6561     2.4632 H            1    LIG   0.0000
  48 H           -5.7713    -4.9479     3.0030 H            1    LIG   0.0000
  49 H            3.1123    -1.2825    -1.6917 H            1    LIG   0.0000
  50 H            3.9344    -3.5334    -1.7521 H            1    LIG   0.0000
@<TRIPOS>BOND
   1        1        2 1
   2        2        3 ar
   3        3        4 ar
   4        4        5 ar
   5        5        6 1
   6        6        7 1
   7        7        8 2
   8        8        9 1
   9        9       10 2
  10       10        6 1
  11       10       11 1
  12       11       12 1
  13       12       13 ar
  14       13       14 ar
  15       14       15 1
  16       15       16 ar
  17       16       17 ar
  18       17       18 ar
  19       18       19 ar
  20       19       20 ar
  21       20       15 ar
  22       14       21 ar
  23       21       22 ar
  24       22       23 1
  25       23       24 1
  26       24       25 2
  27       25       26 1
  28       26       12 ar
  29       26       22 ar
  30       25       27 1
  31       27       28 1
  32       28       29 1
  33       29       30 1
  34       30       24 1
  35        5       31 ar
  36       31       32 ar
  37       32        2 ar
  38        1       33 1
  39        1       34 1
  40        1       35 1
  41        3       36 1
  42        4       37 1
  43       16       38 1
  44       18       39 1
  45       19       40 1
  46       27       41 1
  47       27       42 1
  48       28       43 1
  49       28       44 1
  50       29       45 1
  51       29       46 1
  52       30       47 1
  53       30       48 1
  54       31       49 1
  55       32       50 1

@<TRIPOS>MOLECULE

  50   55
SMALL
USER_CHARGES
@<TRIPOS>ATOM
   1 C1           3.3220    -5.6229    -0.1862 C.3          1    LIG   0.0000
   2 C2           2.7973    -4.1969    -0.1452 C.ar         1    LIG   0.0000
   3 C3           1.8026    -3.8084    -1.0372 C.ar         1    LIG   0.0000
   4 C4           1.3264    -2.5025    -0.9945 C.ar         1    LIG   0.0000
   5 C5           1.8451    -1.6027    -0.0684 C.ar         1    LIG   0.0000
   6 N6           1.3628    -0.2888    -0.0303 N.pl3        1    LIG   0.0000
   7 N7           2.0875     0.7995    -0.0330 N.2          1    LIG   0.0000
   8 N8           1.3300     1.8119     0.0053 N.2          1    LIG   0.0000
   9 N9           0.0778     1.4136     0.0379 N.2          1    LIG   0.0000
  10 C10          0.0642     0.1019     0.0199 C.2          1    LIG   0.0000
  11 S11         -1.3379    -0.9295     0.0478 S.3          1    LIG   0.0000
  12 C12         -1.5925    -1.1782     1.7516 C.ar         1    LIG   0.0000
  13 N13         -0.9867    -2.2214     2.3438 N.ar         1    LIG   0.0000
  14 C14         -1.1334    -2.4756     3.6542 C.ar         1    LIG   0.0000
  15 C15         -0.4923    -3.5991     4.3167 C.ar         1    LIG   0.0000
  16 C16         -0.6834    -3.8143     5.6777 C.ar         1    LIG   0.0000
  17 N17         -0.0994    -4.8482     6.3005 N.ar         1    LIG   0.0000
  18 C18          0.6845    -5.7020     5.6256 C.ar         1    LIG   0.0000
  19 C19          0.8872    -5.5042     4.2636 C.ar         1    LIG   0.0000
  20 N20          0.2953    -4.4636     3.6563 N.ar         1    LIG   0.0000
  21 N21         -1.8932    -1.6796     4.4072 N.ar         1    LIG   0.0000
  22 C22         -2.4691    -0.6569     3.7727 C.ar         1    LIG   0.0000
  23 S23         -3.4537     0.4427     4.6147 S.3          1    LIG   0.0000
  24 C24         -3.8197     1.4010     3.2629 C.2          1    LIG   0.0000
  25 C25         -3.1955     0.8744     2.1641 C.2          1    LIG   0.0000
  26 C26         -2.4124    -0.2913     2.4419 C.ar         1    LIG   0.0000
  27 C27         -3.5207     1.6679     0.8997 C.3          1    LIG   0.0000
  28 C28         -4.0495     3.0658     1.1762 C.3          1    LIG   0.0000
  29 C29         -5.2429     2.9247     2.1076 C.3          1    LIG   0.0000
  30 C30         -4.7061     2.6082     3.4917 C.3          1    LIG   0.0000
  31 C31          2.8389    -1.9916     0.8238 C.ar         1    LIG   0.0000
  32 C32          3.3146    -3.2979     0.7815 C.ar         1    LIG   0.0000
  33 H            4.0274    -5.7389     0.5131 H            1    LIG   0.0000
  34 H            2.5711    -6.2596    -0.0110 H            1    LIG   0.0000
  35 H            3.7129    -5.8085    -1.0878 H            1    LIG   0.0000
  36 H            1.4347    -4.4600    -1.7006 H            1    LIG   0.0000
  37 H            0.6113    -2.2100    -1.6293 H            1    LIG   0.0000
  38 H           -1.2644    -3.1891     6.1989 H            1    LIG   0.0000
  39 H            1.1177    -6.4711     6.0955 H            1    LIG   0.0000
  40 H            1.4674    -6.1302     3.7427 H            1    LIG   0.0000
  41 H           -4.2120     1.1655     0.3805 H            1    LIG   0.0000
  42 H           -2.6867     1.7480     0.3538 H            1    LIG   0.0000
  43 H           -4.3330     3.4993     0.3209 H            1    LIG   0.0000
  44 H           -3.3399     3.6198     1.6116 H            1    LIG   0.0000
  45 H           -5.7617     3.7793     2.1298 H            1    LIG   0.0000
  46 H           -5.8355     2.1830     1.7934 H            1    LIG   0.0000
  47 H           -4.1773     3.3759     3.8537 H            1    LIG   0.0000
  48 H           -5.4510     2.3899     4.1222 H            1    LIG   0.0000
  49 H            3.2067    -1.3401     1.4874 H            1    LIG   0.0000
  50 H            4.0286    -3.5908     1.4175 H            1    LIG   0.0000
@<TRIPOS>BOND
   1        1        2 1
   2        2        3 ar
   3        3        4 ar
   4        4        5 ar
   5        5        6 1
   6        6        7 1
   7        7        8 2
   8        8        9 1
   9        9       10 2
  10       10        6 1
  11       10       11 1
  12       11       12 1
  13       12       13 ar
  14       13       14 ar
  15       14       15 1
  16       15       16 ar
  17       16       17 ar
  18       17       18 ar
  19       18       19 ar
  20       19       20 ar
  21       20       15 ar
  22       14       21 ar
  23       21       22 ar
  24       22       23 1
  25       23       24 1
  26       24       25 2
  27       25       26 1
  28       26       12 ar
  29       26       22 ar
  30       25       27 1
  31       27       28 1
  32       28       29 1
  33       29       30 1
  34       30       24 1
  35        5       31 ar
  36       31       32 ar
  37       32        2 ar
  38        1       33 1
  39        1       34 1
  40        1       35 1
  41        3       36 1
  42        4       37 1
  43       16       38 1
  44       18       39 1
  45       19       40 1
  46       27       41 1
  47       27       42 1
  48       28       43 1
  49       28       44 1
  50       29       45 1
  51       29       46 1
  52       30       47 1
  53       30       48 1
  54       31       49 1
  55       32       50 1

