@<TRIPOS>MOLECULE
*****
 50 55 0 0 0
SMALL
USER_CHARGES

@<TRIPOS>ATOM
      1 C1          3.3222   -5.6229   -0.1840 C.3     1  LIG1        0.0000
      2 C2          2.7988   -4.1963   -0.1438 C.ar    1  LIG1        0.0000
      3 C3          3.4112   -3.2211   -0.9248 C.ar    1  LIG1        0.0000
      4 C4          2.9276   -1.9179   -0.8839 C.ar    1  LIG1        0.0000
      5 C5          1.8451   -1.6027   -0.0684 C.ar    1  LIG1        0.0000
      6 N6          1.3628   -0.2888   -0.0303 N.pl3   1  LIG1        0.0000
      7 N7          2.0875    0.7995   -0.0330 N.2     1  LIG1        0.0000
      8 N8          1.3300    1.8119    0.0053 N.2     1  LIG1        0.0000
      9 N9          0.0778    1.4136    0.0379 N.2     1  LIG1        0.0000
     10 C10         0.0642    0.1019    0.0199 C.2     1  LIG1        0.0000
     11 S11        -1.3379   -0.9295    0.0478 S.3     1  LIG1        0.0000
     12 C12        -2.6492    0.2138    0.1034 C.ar    1  LIG1        0.0000
     13 N13        -3.1671    0.6508   -1.0570 N.ar    1  LIG1        0.0000
     14 C14        -4.1812    1.5303   -1.0939 C.ar    1  LIG1        0.0000
     15 C15        -4.7557    2.0208   -2.3355 C.ar    1  LIG1        0.0000
     16 C16        -4.2622    1.5812   -3.5597 C.ar    1  LIG1        0.0000
     17 N17        -4.7847    2.0242   -4.7124 N.ar    1  LIG1        0.0000
     18 C18        -5.7976    2.9034   -4.7136 C.ar    1  LIG1        0.0000
     19 C19        -6.3055    3.3542   -3.4995 C.ar    1  LIG1        0.0000
     20 N20        -5.7701    2.9007   -2.3552 N.ar    1  LIG1        0.0000
     21 N21        -4.7063    1.9910    0.0419 N.ar    1  LIG1        0.0000
     22 C22        -4.1594    1.5239    1.1656 C.ar    1  LIG1        0.0000
     23 S23        -4.7401    2.0187    2.6840 S.3     1  LIG1        0.0000
     24 C24        -3.6435    1.0910    3.5875 C.2     1  LIG1        0.0000
     25 C25        -2.8259    0.4086    2.7271 C.2     1  LIG1        0.0000
     26 C26        -3.1163    0.6360    1.3440 C.ar    1  LIG1        0.0000
     27 C27        -1.7823   -0.4156    3.4793 C.3     1  LIG1        0.0000
     28 C28        -2.1399   -0.6708    4.9343 C.3     1  LIG1        0.0000
     29 C29        -2.4040    0.6794    5.5815 C.3     1  LIG1        0.0000
     30 C30        -3.7596    1.1601    5.0965 C.3     1  LIG1        0.0000
     31 C31         1.2325   -2.5780    0.7116 C.ar    1  LIG1        0.0000
     32 C32         1.7158   -3.8816    0.6701 C.ar    1  LIG1        0.0000
     33 H           2.7774   -6.1953    0.4289 H       1  LIG1        0.0000
     34 H           3.2556   -5.9763   -1.1171 H       1  LIG1        0.0000
     35 H           4.2780   -5.6357    0.1098 H       1  LIG1        0.0000
     36 H           4.1892   -3.4544   -1.5081 H       1  LIG1        0.0000
     37 H           3.3579   -1.2072   -1.4405 H       1  LIG1        0.0000
     38 H          -3.5073    0.9256   -3.5803 H       1  LIG1        0.0000
     39 H          -6.1829    3.2306   -5.5765 H       1  LIG1        0.0000
     40 H          -7.0611    4.0090   -3.4795 H       1  LIG1        0.0000
     41 H          -0.9112    0.0745    3.4493 H       1  LIG1        0.0000
     42 H          -1.6845   -1.2977    3.0186 H       1  LIG1        0.0000
     43 H          -1.3813   -1.1292    5.3974 H       1  LIG1        0.0000
     44 H          -2.9586   -1.2423    4.9899 H       1  LIG1        0.0000
     45 H          -2.4111    0.5854    6.5770 H       1  LIG1        0.0000
     46 H          -1.6946    1.3312    5.3133 H       1  LIG1        0.0000
     47 H          -4.4896    0.5614    5.4262 H       1  LIG1        0.0000
     48 H          -3.9351    2.0971    5.3985 H       1  LIG1        0.0000
     49 H           0.4544   -2.3449    1.2948 H       1  LIG1        0.0000
     50 H           1.2845   -4.5926    1.2255 H       1  LIG1        0.0000
@<TRIPOS>BOND
     1     1     2    1
     2     2     3   ar
     3     3     4   ar
     4     4     5   ar
     5     5     6    1
     6     6     7    1
     7     7     8    2
     8     8     9    1
     9     9    10    2
    10    10     6    1
    11    10    11    1
    12    11    12    1
    13    12    13   ar
    14    13    14   ar
    15    14    15    1
    16    15    16   ar
    17    16    17   ar
    18    17    18   ar
    19    18    19   ar
    20    19    20   ar
    21    20    15   ar
    22    14    21   ar
    23    21    22   ar
    24    22    23    1
    25    23    24    1
    26    24    25    2
    27    25    26    1
    28    26    12   ar
    29    26    22   ar
    30    25    27    1
    31    27    28    1
    32    28    29    1
    33    29    30    1
    34    30    24    1
    35     5    31   ar
    36    31    32   ar
    37    32     2   ar
    38     1    33    1
    39     1    34    1
    40     1    35    1
    41     3    36    1
    42     4    37    1
    43    16    38    1
    44    18    39    1
    45    19    40    1
    46    27    41    1
    47    27    42    1
    48    28    43    1
    49    28    44    1
    50    29    45    1
    51    29    46    1
    52    30    47    1
    53    30    48    1
    54    31    49    1
    55    32    50    1
