@<TRIPOS>MOLECULE
*****
 50 55 0 0 0
SMALL
USER_CHARGES

@<TRIPOS>ATOM
      1 C1          3.3220   -5.6229   -0.1862 C.3     1  LIG1        0.0000
      2 C2          2.7973   -4.1969   -0.1452 C.ar    1  LIG1        0.0000
      3 C3          1.8026   -3.8084   -1.0372 C.ar    1  LIG1        0.0000
      4 C4          1.3264   -2.5025   -0.9945 C.ar    1  LIG1        0.0000
      5 C5          1.8451   -1.6027   -0.0684 C.ar    1  LIG1        0.0000
      6 N6          1.3628   -0.2888   -0.0303 N.pl3   1  LIG1        0.0000
      7 N7          2.0875    0.7995   -0.0330 N.2     1  LIG1        0.0000
      8 N8          1.3300    1.8119    0.0053 N.2     1  LIG1        0.0000
      9 N9          0.0778    1.4136    0.0379 N.2     1  LIG1        0.0000
     10 C10         0.0642    0.1019    0.0199 C.2     1  LIG1        0.0000
     11 S11        -1.3379   -0.9295    0.0478 S.3     1  LIG1        0.0000
     12 C12        -1.5925   -1.1782    1.7516 C.ar    1  LIG1        0.0000
     13 N13        -0.9867   -2.2214    2.3438 N.ar    1  LIG1        0.0000
     14 C14        -1.1334   -2.4756    3.6542 C.ar    1  LIG1        0.0000
     15 C15        -0.4923   -3.5991    4.3167 C.ar    1  LIG1        0.0000
     16 C16        -0.6834   -3.8143    5.6777 C.ar    1  LIG1        0.0000
     17 N17        -0.0994   -4.8482    6.3005 N.ar    1  LIG1        0.0000
     18 C18         0.6845   -5.7020    5.6256 C.ar    1  LIG1        0.0000
     19 C19         0.8872   -5.5042    4.2636 C.ar    1  LIG1        0.0000
     20 N20         0.2953   -4.4636    3.6563 N.ar    1  LIG1        0.0000
     21 N21        -1.8932   -1.6796    4.4072 N.ar    1  LIG1        0.0000
     22 C22        -2.4691   -0.6569    3.7727 C.ar    1  LIG1        0.0000
     23 S23        -3.4537    0.4427    4.6147 S.3     1  LIG1        0.0000
     24 C24        -3.8197    1.4010    3.2629 C.2     1  LIG1        0.0000
     25 C25        -3.1955    0.8744    2.1641 C.2     1  LIG1        0.0000
     26 C26        -2.4124   -0.2913    2.4419 C.ar    1  LIG1        0.0000
     27 C27        -3.5207    1.6679    0.8997 C.3     1  LIG1        0.0000
     28 C28        -4.0495    3.0658    1.1762 C.3     1  LIG1        0.0000
     29 C29        -5.2429    2.9247    2.1076 C.3     1  LIG1        0.0000
     30 C30        -4.7061    2.6082    3.4917 C.3     1  LIG1        0.0000
     31 C31         2.8389   -1.9916    0.8238 C.ar    1  LIG1        0.0000
     32 C32         3.3146   -3.2979    0.7815 C.ar    1  LIG1        0.0000
     33 H           4.0274   -5.7389    0.5131 H       1  LIG1        0.0000
     34 H           2.5711   -6.2596   -0.0110 H       1  LIG1        0.0000
     35 H           3.7129   -5.8085   -1.0878 H       1  LIG1        0.0000
     36 H           1.4347   -4.4600   -1.7006 H       1  LIG1        0.0000
     37 H           0.6113   -2.2100   -1.6293 H       1  LIG1        0.0000
     38 H          -1.2644   -3.1891    6.1989 H       1  LIG1        0.0000
     39 H           1.1177   -6.4711    6.0955 H       1  LIG1        0.0000
     40 H           1.4674   -6.1302    3.7427 H       1  LIG1        0.0000
     41 H          -4.2120    1.1655    0.3805 H       1  LIG1        0.0000
     42 H          -2.6867    1.7480    0.3538 H       1  LIG1        0.0000
     43 H          -4.3330    3.4993    0.3209 H       1  LIG1        0.0000
     44 H          -3.3399    3.6198    1.6116 H       1  LIG1        0.0000
     45 H          -5.7617    3.7793    2.1298 H       1  LIG1        0.0000
     46 H          -5.8355    2.1830    1.7934 H       1  LIG1        0.0000
     47 H          -4.1773    3.3759    3.8537 H       1  LIG1        0.0000
     48 H          -5.4510    2.3899    4.1222 H       1  LIG1        0.0000
     49 H           3.2067   -1.3401    1.4874 H       1  LIG1        0.0000
     50 H           4.0286   -3.5908    1.4175 H       1  LIG1        0.0000
@<TRIPOS>BOND
     1     1     2    1
     2     2     3   ar
     3     3     4   ar
     4     4     5   ar
     5     5     6    1
     6     6     7    1
     7     7     8    2
     8     8     9    1
     9     9    10    2
    10    10     6    1
    11    10    11    1
    12    11    12    1
    13    12    13   ar
    14    13    14   ar
    15    14    15    1
    16    15    16   ar
    17    16    17   ar
    18    17    18   ar
    19    18    19   ar
    20    19    20   ar
    21    20    15   ar
    22    14    21   ar
    23    21    22   ar
    24    22    23    1
    25    23    24    1
    26    24    25    2
    27    25    26    1
    28    26    12   ar
    29    26    22   ar
    30    25    27    1
    31    27    28    1
    32    28    29    1
    33    29    30    1
    34    30    24    1
    35     5    31   ar
    36    31    32   ar
    37    32     2   ar
    38     1    33    1
    39     1    34    1
    40     1    35    1
    41     3    36    1
    42     4    37    1
    43    16    38    1
    44    18    39    1
    45    19    40    1
    46    27    41    1
    47    27    42    1
    48    28    43    1
    49    28    44    1
    50    29    45    1
    51    29    46    1
    52    30    47    1
    53    30    48    1
    54    31    49    1
    55    32    50    1
