@<TRIPOS>MOLECULE
*****
 50 55 0 0 0
SMALL
USER_CHARGES

@<TRIPOS>ATOM
      1 C1          3.3222   -5.6229   -0.1840 C.3     1  LIG1        0.0000
      2 C2          2.7988   -4.1963   -0.1438 C.ar    1  LIG1        0.0000
      3 C3          3.4112   -3.2211   -0.9248 C.ar    1  LIG1        0.0000
      4 C4          2.9276   -1.9179   -0.8839 C.ar    1  LIG1        0.0000
      5 C5          1.8451   -1.6027   -0.0684 C.ar    1  LIG1        0.0000
      6 N6          1.3628   -0.2888   -0.0303 N.pl3   1  LIG1        0.0000
      7 N7          2.0875    0.7995   -0.0330 N.2     1  LIG1        0.0000
      8 N8          1.3300    1.8119    0.0053 N.2     1  LIG1        0.0000
      9 N9          0.0778    1.4136    0.0379 N.2     1  LIG1        0.0000
     10 C10         0.0642    0.1019    0.0199 C.2     1  LIG1        0.0000
     11 S11        -1.3379   -0.9295    0.0478 S.3     1  LIG1        0.0000
     12 C12        -1.5925   -1.1782    1.7516 C.ar    1  LIG1        0.0000
     13 N13        -0.7496   -0.5901    2.6174 N.ar    1  LIG1        0.0000
     14 C14        -0.8841   -0.7337    3.9457 C.ar    1  LIG1        0.0000
     15 C15         0.0164   -0.1114    4.9019 C.ar    1  LIG1        0.0000
     16 C16         1.0742    0.6769    4.4603 C.ar    1  LIG1        0.0000
     17 N17         1.9109    1.2584    5.3320 N.ar    1  LIG1        0.0000
     18 C18         1.7482    1.0943    6.6532 C.ar    1  LIG1        0.0000
     19 C19         0.6957    0.3102    7.1145 C.ar    1  LIG1        0.0000
     20 N20        -0.1319   -0.2649    6.2278 N.ar    1  LIG1        0.0000
     21 N21        -1.8783   -1.4722    4.4397 N.ar    1  LIG1        0.0000
     22 C22        -2.6889   -2.0312    3.5393 C.ar    1  LIG1        0.0000
     23 S23        -4.0041   -2.9877    4.0316 S.3     1  LIG1        0.0000
     24 C24        -4.5433   -3.3427    2.4622 C.2     1  LIG1        0.0000
     25 C25        -3.7111   -2.7364    1.5599 C.2     1  LIG1        0.0000
     26 C26        -2.6572   -1.9755    2.1595 C.ar    1  LIG1        0.0000
     27 C27        -4.1165   -3.0533    0.1214 C.3     1  LIG1        0.0000
     28 C28        -5.5460   -3.5517   -0.0135 C.3     1  LIG1        0.0000
     29 C29        -5.7029   -4.7418    0.9196 C.3     1  LIG1        0.0000
     30 C30        -5.7842   -4.2028    2.3362 C.3     1  LIG1        0.0000
     31 C31         1.2325   -2.5780    0.7116 C.ar    1  LIG1        0.0000
     32 C32         1.7158   -3.8816    0.6701 C.ar    1  LIG1        0.0000
     33 H           2.7774   -6.1953    0.4289 H       1  LIG1        0.0000
     34 H           3.2556   -5.9763   -1.1171 H       1  LIG1        0.0000
     35 H           4.2780   -5.6357    0.1098 H       1  LIG1        0.0000
     36 H           4.1892   -3.4544   -1.5081 H       1  LIG1        0.0000
     37 H           3.3579   -1.2072   -1.4405 H       1  LIG1        0.0000
     38 H           1.2125    0.8118    3.4792 H       1  LIG1        0.0000
     39 H           2.3756    1.5300    7.2986 H       1  LIG1        0.0000
     40 H           0.5572    0.1765    8.0958 H       1  LIG1        0.0000
     41 H          -3.5015   -3.7581   -0.2322 H       1  LIG1        0.0000
     42 H          -4.0192   -2.2213   -0.4248 H       1  LIG1        0.0000
     43 H          -5.7227   -3.8317   -0.9571 H       1  LIG1        0.0000
     44 H          -6.1861   -2.8282    0.2449 H       1  LIG1        0.0000
     45 H          -6.5390   -5.2429    0.6964 H       1  LIG1        0.0000
     46 H          -4.9152   -5.3514    0.8309 H       1  LIG1        0.0000
     47 H          -6.6119   -3.6561    2.4632 H       1  LIG1        0.0000
     48 H          -5.7713   -4.9479    3.0030 H       1  LIG1        0.0000
     49 H           0.4544   -2.3449    1.2948 H       1  LIG1        0.0000
     50 H           1.2845   -4.5926    1.2255 H       1  LIG1        0.0000
@<TRIPOS>BOND
     1     1     2    1
     2     2     3   ar
     3     3     4   ar
     4     4     5   ar
     5     5     6    1
     6     6     7    1
     7     7     8    2
     8     8     9    1
     9     9    10    2
    10    10     6    1
    11    10    11    1
    12    11    12    1
    13    12    13   ar
    14    13    14   ar
    15    14    15    1
    16    15    16   ar
    17    16    17   ar
    18    17    18   ar
    19    18    19   ar
    20    19    20   ar
    21    20    15   ar
    22    14    21   ar
    23    21    22   ar
    24    22    23    1
    25    23    24    1
    26    24    25    2
    27    25    26    1
    28    26    12   ar
    29    26    22   ar
    30    25    27    1
    31    27    28    1
    32    28    29    1
    33    29    30    1
    34    30    24    1
    35     5    31   ar
    36    31    32   ar
    37    32     2   ar
    38     1    33    1
    39     1    34    1
    40     1    35    1
    41     3    36    1
    42     4    37    1
    43    16    38    1
    44    18    39    1
    45    19    40    1
    46    27    41    1
    47    27    42    1
    48    28    43    1
    49    28    44    1
    50    29    45    1
    51    29    46    1
    52    30    47    1
    53    30    48    1
    54    31    49    1
    55    32    50    1
