@<TRIPOS>MOLECULE
*****
 50 55 0 0 0
SMALL
USER_CHARGES

@<TRIPOS>ATOM
      1 C1          3.3198   -5.6238   -0.1858 C.3     1  LIG1        0.0000
      2 C2          2.7961   -4.1974   -0.1433 C.ar    1  LIG1        0.0000
      3 C3          1.8579   -3.8420    0.8209 C.ar    1  LIG1        0.0000
      4 C4          1.3828   -2.5354    0.8549 C.ar    1  LIG1        0.0000
      5 C5          1.8451   -1.6027   -0.0684 C.ar    1  LIG1        0.0000
      6 N6          1.3628   -0.2888   -0.0303 N.pl3   1  LIG1        0.0000
      7 N7          2.0875    0.7995   -0.0330 N.2     1  LIG1        0.0000
      8 N8          1.3300    1.8119    0.0053 N.2     1  LIG1        0.0000
      9 N9          0.0778    1.4136    0.0379 N.2     1  LIG1        0.0000
     10 C10         0.0642    0.1019    0.0199 C.2     1  LIG1        0.0000
     11 S11        -1.3379   -0.9295    0.0478 S.3     1  LIG1        0.0000
     12 C12        -2.6488    0.2134    0.1034 C.ar    1  LIG1        0.0000
     13 N13        -3.1695    0.6529   -1.0554 N.ar    1  LIG1        0.0000
     14 C14        -4.1845    1.5332   -1.1095 C.ar    1  LIG1        0.0000
     15 C15        -4.7615    2.0196   -2.3517 C.ar    1  LIG1        0.0000
     16 C16        -5.8099    2.9337   -2.3287 C.ar    1  LIG1        0.0000
     17 N17        -6.3497    3.3919   -3.4674 N.ar    1  LIG1        0.0000
     18 C18        -5.8912    2.9798   -4.6586 C.ar    1  LIG1        0.0000
     19 C19        -4.8427    2.0665   -4.7024 C.ar    1  LIG1        0.0000
     20 N20        -4.3147    1.6179   -3.5528 N.ar    1  LIG1        0.0000
     21 N21        -4.7129    2.0064    0.0221 N.ar    1  LIG1        0.0000
     22 C22        -4.1590    1.5584    1.1455 C.ar    1  LIG1        0.0000
     23 S23        -4.7137    2.1033    2.6691 S.3     1  LIG1        0.0000
     24 C24        -3.6464    1.1670    3.5923 C.2     1  LIG1        0.0000
     25 C25        -2.8830    0.4306    2.7307 C.2     1  LIG1        0.0000
     26 C26        -3.1354    0.6412    1.3344 C.ar    1  LIG1        0.0000
     27 C27        -1.9191   -0.5002    3.4618 C.3     1  LIG1        0.0000
     28 C28        -1.6114   -0.1101    4.9013 C.3     1  LIG1        0.0000
     29 C29        -2.9301    0.0561    5.6325 C.3     1  LIG1        0.0000
     30 C30        -3.6651    1.2715    5.1049 C.3     1  LIG1        0.0000
     31 C31         2.7836   -1.9580   -1.0316 C.ar    1  LIG1        0.0000
     32 C32         3.2593   -3.2646   -1.0651 C.ar    1  LIG1        0.0000
     33 H           3.9812   -5.7139   -0.9304 H       1  LIG1        0.0000
     34 H           3.7642   -5.8418    0.6831 H       1  LIG1        0.0000
     35 H           2.5585   -6.2540   -0.3382 H       1  LIG1        0.0000
     36 H           1.5295   -4.5175    1.4811 H       1  LIG1        0.0000
     37 H           0.7088   -2.2662    1.5429 H       1  LIG1        0.0000
     38 H          -6.1660    3.2535   -1.4506 H       1  LIG1        0.0000
     39 H          -6.2980    3.3246   -5.5045 H       1  LIG1        0.0000
     40 H          -4.4863    1.7478   -5.5807 H       1  LIG1        0.0000
     41 H          -1.0577   -0.5151    2.9540 H       1  LIG1        0.0000
     42 H          -2.3184   -1.4170    3.4679 H       1  LIG1        0.0000
     43 H          -1.1027    0.7506    4.9186 H       1  LIG1        0.0000
     44 H          -1.0685   -0.8270    5.3388 H       1  LIG1        0.0000
     45 H          -3.4925   -0.7585    5.4906 H       1  LIG1        0.0000
     46 H          -2.7543    0.1737    6.6099 H       1  LIG1        0.0000
     47 H          -4.6077    1.2764    5.4387 H       1  LIG1        0.0000
     48 H          -3.2032    2.1084    5.3987 H       1  LIG1        0.0000
     49 H           3.1123   -1.2825   -1.6917 H       1  LIG1        0.0000
     50 H           3.9344   -3.5334   -1.7521 H       1  LIG1        0.0000
@<TRIPOS>BOND
     1     1     2    1
     2     2     3   ar
     3     3     4   ar
     4     4     5   ar
     5     5     6    1
     6     6     7    1
     7     7     8    2
     8     8     9    1
     9     9    10    2
    10    10     6    1
    11    10    11    1
    12    11    12    1
    13    12    13   ar
    14    13    14   ar
    15    14    15    1
    16    15    16   ar
    17    16    17   ar
    18    17    18   ar
    19    18    19   ar
    20    19    20   ar
    21    20    15   ar
    22    14    21   ar
    23    21    22   ar
    24    22    23    1
    25    23    24    1
    26    24    25    2
    27    25    26    1
    28    26    12   ar
    29    26    22   ar
    30    25    27    1
    31    27    28    1
    32    28    29    1
    33    29    30    1
    34    30    24    1
    35     5    31   ar
    36    31    32   ar
    37    32     2   ar
    38     1    33    1
    39     1    34    1
    40     1    35    1
    41     3    36    1
    42     4    37    1
    43    16    38    1
    44    18    39    1
    45    19    40    1
    46    27    41    1
    47    27    42    1
    48    28    43    1
    49    28    44    1
    50    29    45    1
    51    29    46    1
    52    30    47    1
    53    30    48    1
    54    31    49    1
    55    32    50    1
