@<TRIPOS>MOLECULE
*****
 50 55 0 0 0
SMALL
USER_CHARGES

@<TRIPOS>ATOM
      1 C1          3.3222   -5.6229   -0.1840 C.3     1  LIG1        0.0000
      2 C2          2.7988   -4.1963   -0.1438 C.ar    1  LIG1        0.0000
      3 C3          3.4112   -3.2211   -0.9248 C.ar    1  LIG1        0.0000
      4 C4          2.9276   -1.9179   -0.8839 C.ar    1  LIG1        0.0000
      5 C5          1.8451   -1.6027   -0.0684 C.ar    1  LIG1        0.0000
      6 N6          1.3628   -0.2888   -0.0303 N.pl3   1  LIG1        0.0000
      7 N7          2.0875    0.7995   -0.0330 N.2     1  LIG1        0.0000
      8 N8          1.3300    1.8119    0.0053 N.2     1  LIG1        0.0000
      9 N9          0.0778    1.4136    0.0379 N.2     1  LIG1        0.0000
     10 C10         0.0642    0.1019    0.0199 C.2     1  LIG1        0.0000
     11 S11        -1.3379   -0.9295    0.0478 S.3     1  LIG1        0.0000
     12 C12        -2.6492    0.2138    0.1034 C.ar    1  LIG1        0.0000
     13 N13        -3.0958    0.6177    1.3047 N.ar    1  LIG1        0.0000
     14 C14        -4.1016    1.4990    1.4271 C.ar    1  LIG1        0.0000
     15 C15        -4.6049    1.9482    2.7145 C.ar    1  LIG1        0.0000
     16 C16        -4.0442    1.4688    3.8940 C.ar    1  LIG1        0.0000
     17 N17        -4.4978    1.8767    5.0880 N.ar    1  LIG1        0.0000
     18 C18        -5.5047    2.7585    5.1749 C.ar    1  LIG1        0.0000
     19 C19        -6.0780    3.2501    4.0066 C.ar    1  LIG1        0.0000
     20 N20        -5.6119    2.8305    2.8199 N.ar    1  LIG1        0.0000
     21 N21        -4.6832    2.0031    0.3383 N.ar    1  LIG1        0.0000
     22 C22        -4.2010    1.5731   -0.8291 C.ar    1  LIG1        0.0000
     23 S23        -4.8423    2.1436   -2.2956 S.3     1  LIG1        0.0000
     24 C24        -3.8194    1.2236   -3.2890 C.2     1  LIG1        0.0000
     25 C25        -2.9922    0.4720   -2.4983 C.2     1  LIG1        0.0000
     26 C26        -3.1900    0.6702   -1.0945 C.ar    1  LIG1        0.0000
     27 C27        -2.0717   -0.4162   -3.3337 C.3     1  LIG1        0.0000
     28 C28        -1.9375    0.0338   -4.7793 C.3     1  LIG1        0.0000
     29 C29        -3.3405    0.1370   -5.3558 C.3     1  LIG1        0.0000
     30 C30        -3.9762    1.3923   -4.7864 C.3     1  LIG1        0.0000
     31 C31         1.2325   -2.5780    0.7116 C.ar    1  LIG1        0.0000
     32 C32         1.7158   -3.8816    0.6701 C.ar    1  LIG1        0.0000
     33 H           2.7774   -6.1953    0.4289 H       1  LIG1        0.0000
     34 H           3.2556   -5.9763   -1.1171 H       1  LIG1        0.0000
     35 H           4.2780   -5.6357    0.1098 H       1  LIG1        0.0000
     36 H           4.1892   -3.4544   -1.5081 H       1  LIG1        0.0000
     37 H           3.3579   -1.2072   -1.4405 H       1  LIG1        0.0000
     38 H          -3.2924    0.8108    3.8507 H       1  LIG1        0.0000
     39 H          -5.8392    3.0587    6.0683 H       1  LIG1        0.0000
     40 H          -6.8291    3.9089    4.0505 H       1  LIG1        0.0000
     41 H          -2.4375   -1.3468   -3.3252 H       1  LIG1        0.0000
     42 H          -1.1632   -0.4113   -2.9157 H       1  LIG1        0.0000
     43 H          -1.4036   -0.6346   -5.2972 H       1  LIG1        0.0000
     44 H          -1.4852    0.9248   -4.8194 H       1  LIG1        0.0000
     45 H          -3.2963    0.1988   -6.3529 H       1  LIG1        0.0000
     46 H          -3.8768   -0.6657   -5.0950 H       1  LIG1        0.0000
     47 H          -3.4982    2.2107   -5.1055 H       1  LIG1        0.0000
     48 H          -4.9417    1.4501   -5.0401 H       1  LIG1        0.0000
     49 H           0.4544   -2.3449    1.2948 H       1  LIG1        0.0000
     50 H           1.2845   -4.5926    1.2255 H       1  LIG1        0.0000
@<TRIPOS>BOND
     1     1     2    1
     2     2     3   ar
     3     3     4   ar
     4     4     5   ar
     5     5     6    1
     6     6     7    1
     7     7     8    2
     8     8     9    1
     9     9    10    2
    10    10     6    1
    11    10    11    1
    12    11    12    1
    13    12    13   ar
    14    13    14   ar
    15    14    15    1
    16    15    16   ar
    17    16    17   ar
    18    17    18   ar
    19    18    19   ar
    20    19    20   ar
    21    20    15   ar
    22    14    21   ar
    23    21    22   ar
    24    22    23    1
    25    23    24    1
    26    24    25    2
    27    25    26    1
    28    26    12   ar
    29    26    22   ar
    30    25    27    1
    31    27    28    1
    32    28    29    1
    33    29    30    1
    34    30    24    1
    35     5    31   ar
    36    31    32   ar
    37    32     2   ar
    38     1    33    1
    39     1    34    1
    40     1    35    1
    41     3    36    1
    42     4    37    1
    43    16    38    1
    44    18    39    1
    45    19    40    1
    46    27    41    1
    47    27    42    1
    48    28    43    1
    49    28    44    1
    50    29    45    1
    51    29    46    1
    52    30    47    1
    53    30    48    1
    54    31    49    1
    55    32    50    1
