@<TRIPOS>MOLECULE
*****
 50 55 0 0 0
SMALL
USER_CHARGES

@<TRIPOS>ATOM
      1 C1          3.3222   -5.6229   -0.1840 C.3     1  LIG1        0.0000
      2 C2          2.7988   -4.1963   -0.1438 C.ar    1  LIG1        0.0000
      3 C3          3.4112   -3.2211   -0.9248 C.ar    1  LIG1        0.0000
      4 C4          2.9276   -1.9179   -0.8839 C.ar    1  LIG1        0.0000
      5 C5          1.8451   -1.6027   -0.0684 C.ar    1  LIG1        0.0000
      6 N6          1.3628   -0.2888   -0.0303 N.pl3   1  LIG1        0.0000
      7 N7          2.0875    0.7995   -0.0330 N.2     1  LIG1        0.0000
      8 N8          1.3300    1.8119    0.0053 N.2     1  LIG1        0.0000
      9 N9          0.0778    1.4136    0.0379 N.2     1  LIG1        0.0000
     10 C10         0.0642    0.1019    0.0199 C.2     1  LIG1        0.0000
     11 S11        -1.3379   -0.9295    0.0478 S.3     1  LIG1        0.0000
     12 C12        -1.6949   -1.1307   -1.6439 C.ar    1  LIG1        0.0000
     13 N13        -0.9053   -0.5179   -2.5421 N.ar    1  LIG1        0.0000
     14 C14        -1.1166   -0.6287   -3.8636 C.ar    1  LIG1        0.0000
     15 C15        -0.2795    0.0273   -4.8542 C.ar    1  LIG1        0.0000
     16 C16         0.7988    0.8104   -4.4552 C.ar    1  LIG1        0.0000
     17 N17         1.5801    1.4191   -5.3590 N.ar    1  LIG1        0.0000
     18 C18         1.3411    1.2877   -6.6722 C.ar    1  LIG1        0.0000
     19 C19         0.2678    0.5081   -7.0913 C.ar    1  LIG1        0.0000
     20 N20        -0.5043   -0.0937   -6.1728 N.ar    1  LIG1        0.0000
     21 N21        -2.1298   -1.3669   -4.3176 N.ar    1  LIG1        0.0000
     22 C22        -2.8811   -1.9569   -3.3862 C.ar    1  LIG1        0.0000
     23 S23        -4.1980   -2.9366   -3.8262 S.3     1  LIG1        0.0000
     24 C24        -4.6566   -3.3157   -2.2370 C.2     1  LIG1        0.0000
     25 C25        -3.8072   -2.6849   -1.3681 C.2     1  LIG1        0.0000
     26 C26        -2.7830   -1.9171   -2.0090 C.ar    1  LIG1        0.0000
     27 C27        -4.1931   -2.9501    0.0861 C.3     1  LIG1        0.0000
     28 C28        -5.0905   -4.1634    0.2673 C.3     1  LIG1        0.0000
     29 C29        -6.2970   -3.9763   -0.6387 C.3     1  LIG1        0.0000
     30 C30        -5.8432   -4.2414   -2.0628 C.3     1  LIG1        0.0000
     31 C31         1.2325   -2.5780    0.7116 C.ar    1  LIG1        0.0000
     32 C32         1.7158   -3.8816    0.6701 C.ar    1  LIG1        0.0000
     33 H           2.7774   -6.1953    0.4289 H       1  LIG1        0.0000
     34 H           3.2556   -5.9763   -1.1171 H       1  LIG1        0.0000
     35 H           4.2780   -5.6357    0.1098 H       1  LIG1        0.0000
     36 H           4.1892   -3.4544   -1.5081 H       1  LIG1        0.0000
     37 H           3.3579   -1.2072   -1.4405 H       1  LIG1        0.0000
     38 H           0.9940    0.9208   -3.4806 H       1  LIG1        0.0000
     39 H           1.9269    1.7445   -7.3417 H       1  LIG1        0.0000
     40 H           0.0737    0.3971   -8.0659 H       1  LIG1        0.0000
     41 H          -4.6737   -2.1465    0.4371 H       1  LIG1        0.0000
     42 H          -3.3560   -3.0947    0.6138 H       1  LIG1        0.0000
     43 H          -5.3859   -4.2307    1.2203 H       1  LIG1        0.0000
     44 H          -4.5969   -4.9947    0.0118 H       1  LIG1        0.0000
     45 H          -7.0181   -4.6208   -0.3846 H       1  LIG1        0.0000
     46 H          -6.6423   -3.0412   -0.5588 H       1  LIG1        0.0000
     47 H          -5.5709   -5.1965   -2.1787 H       1  LIG1        0.0000
     48 H          -6.5677   -4.0197   -2.7154 H       1  LIG1        0.0000
     49 H           0.4544   -2.3449    1.2948 H       1  LIG1        0.0000
     50 H           1.2845   -4.5926    1.2255 H       1  LIG1        0.0000
@<TRIPOS>BOND
     1     1     2    1
     2     2     3   ar
     3     3     4   ar
     4     4     5   ar
     5     5     6    1
     6     6     7    1
     7     7     8    2
     8     8     9    1
     9     9    10    2
    10    10     6    1
    11    10    11    1
    12    11    12    1
    13    12    13   ar
    14    13    14   ar
    15    14    15    1
    16    15    16   ar
    17    16    17   ar
    18    17    18   ar
    19    18    19   ar
    20    19    20   ar
    21    20    15   ar
    22    14    21   ar
    23    21    22   ar
    24    22    23    1
    25    23    24    1
    26    24    25    2
    27    25    26    1
    28    26    12   ar
    29    26    22   ar
    30    25    27    1
    31    27    28    1
    32    28    29    1
    33    29    30    1
    34    30    24    1
    35     5    31   ar
    36    31    32   ar
    37    32     2   ar
    38     1    33    1
    39     1    34    1
    40     1    35    1
    41     3    36    1
    42     4    37    1
    43    16    38    1
    44    18    39    1
    45    19    40    1
    46    27    41    1
    47    27    42    1
    48    28    43    1
    49    28    44    1
    50    29    45    1
    51    29    46    1
    52    30    47    1
    53    30    48    1
    54    31    49    1
    55    32    50    1
