@<TRIPOS>MOLECULE
*****
 50 55 0 0 0
SMALL
USER_CHARGES

@<TRIPOS>ATOM
      1 C1          3.3203   -5.6236   -0.1836 C.3     1  LIG1        0.0000
      2 C2          2.7978   -4.1968   -0.1422 C.ar    1  LIG1        0.0000
      3 C3          3.4576   -3.2493    0.6343 C.ar    1  LIG1        0.0000
      4 C4          2.9749   -1.9455    0.6679 C.ar    1  LIG1        0.0000
      5 C5          1.8451   -1.6027   -0.0684 C.ar    1  LIG1        0.0000
      6 N6          1.3628   -0.2888   -0.0303 N.pl3   1  LIG1        0.0000
      7 N7          2.0875    0.7995   -0.0330 N.2     1  LIG1        0.0000
      8 N8          1.3300    1.8119    0.0053 N.2     1  LIG1        0.0000
      9 N9          0.0778    1.4136    0.0379 N.2     1  LIG1        0.0000
     10 C10         0.0642    0.1019    0.0199 C.2     1  LIG1        0.0000
     11 S11        -1.3379   -0.9295    0.0478 S.3     1  LIG1        0.0000
     12 C12        -1.5925   -1.1782    1.7516 C.ar    1  LIG1        0.0000
     13 N13        -0.9867   -2.2214    2.3438 N.ar    1  LIG1        0.0000
     14 C14        -1.1334   -2.4756    3.6542 C.ar    1  LIG1        0.0000
     15 C15        -0.4923   -3.5991    4.3167 C.ar    1  LIG1        0.0000
     16 C16         0.3186   -4.4700    3.5960 C.ar    1  LIG1        0.0000
     17 N17         0.9176   -5.5090    4.1956 N.ar    1  LIG1        0.0000
     18 C18         0.7497   -5.7347    5.5070 C.ar    1  LIG1        0.0000
     19 C19        -0.0568   -4.8744    6.2451 C.ar    1  LIG1        0.0000
     20 N20        -0.6492   -3.8397    5.6286 N.ar    1  LIG1        0.0000
     21 N21        -1.8932   -1.6796    4.4072 N.ar    1  LIG1        0.0000
     22 C22        -2.4691   -0.6569    3.7727 C.ar    1  LIG1        0.0000
     23 S23        -3.4537    0.4427    4.6147 S.3     1  LIG1        0.0000
     24 C24        -3.8197    1.4010    3.2629 C.2     1  LIG1        0.0000
     25 C25        -3.1955    0.8744    2.1641 C.2     1  LIG1        0.0000
     26 C26        -2.4124   -0.2913    2.4419 C.ar    1  LIG1        0.0000
     27 C27        -3.5207    1.6679    0.8997 C.3     1  LIG1        0.0000
     28 C28        -4.0495    3.0658    1.1762 C.3     1  LIG1        0.0000
     29 C29        -5.2429    2.9247    2.1076 C.3     1  LIG1        0.0000
     30 C30        -4.7061    2.6082    3.4917 C.3     1  LIG1        0.0000
     31 C31         1.1862   -2.5499   -0.8453 C.ar    1  LIG1        0.0000
     32 C32         1.6694   -3.8536   -0.8794 C.ar    1  LIG1        0.0000
     33 H           2.7387   -6.1744   -0.7823 H       1  LIG1        0.0000
     34 H           4.2567   -5.6256   -0.5347 H       1  LIG1        0.0000
     35 H           3.3094   -6.0096    0.7388 H       1  LIG1        0.0000
     36 H           4.2687   -3.5027    1.1615 H       1  LIG1        0.0000
     37 H           3.4397   -1.2543    1.2213 H       1  LIG1        0.0000
     38 H           0.4567   -4.3190    2.6172 H       1  LIG1        0.0000
     39 H           1.1986   -6.5115    5.9487 H       1  LIG1        0.0000
     40 H          -0.1937   -5.0253    7.2242 H       1  LIG1        0.0000
     41 H          -4.2120    1.1655    0.3805 H       1  LIG1        0.0000
     42 H          -2.6867    1.7480    0.3538 H       1  LIG1        0.0000
     43 H          -4.3330    3.4993    0.3209 H       1  LIG1        0.0000
     44 H          -3.3399    3.6198    1.6116 H       1  LIG1        0.0000
     45 H          -5.7617    3.7793    2.1298 H       1  LIG1        0.0000
     46 H          -5.8355    2.1830    1.7934 H       1  LIG1        0.0000
     47 H          -4.1773    3.3759    3.8537 H       1  LIG1        0.0000
     48 H          -5.4510    2.3899    4.1222 H       1  LIG1        0.0000
     49 H           0.3752   -2.2966   -1.3727 H       1  LIG1        0.0000
     50 H           1.2055   -4.5444   -1.4340 H       1  LIG1        0.0000
@<TRIPOS>BOND
     1     1     2    1
     2     2     3   ar
     3     3     4   ar
     4     4     5   ar
     5     5     6    1
     6     6     7    1
     7     7     8    2
     8     8     9    1
     9     9    10    2
    10    10     6    1
    11    10    11    1
    12    11    12    1
    13    12    13   ar
    14    13    14   ar
    15    14    15    1
    16    15    16   ar
    17    16    17   ar
    18    17    18   ar
    19    18    19   ar
    20    19    20   ar
    21    20    15   ar
    22    14    21   ar
    23    21    22   ar
    24    22    23    1
    25    23    24    1
    26    24    25    2
    27    25    26    1
    28    26    12   ar
    29    26    22   ar
    30    25    27    1
    31    27    28    1
    32    28    29    1
    33    29    30    1
    34    30    24    1
    35     5    31   ar
    36    31    32   ar
    37    32     2   ar
    38     1    33    1
    39     1    34    1
    40     1    35    1
    41     3    36    1
    42     4    37    1
    43    16    38    1
    44    18    39    1
    45    19    40    1
    46    27    41    1
    47    27    42    1
    48    28    43    1
    49    28    44    1
    50    29    45    1
    51    29    46    1
    52    30    47    1
    53    30    48    1
    54    31    49    1
    55    32    50    1
