@<TRIPOS>MOLECULE

  33   36
SMALL
USER_CHARGES
@<TRIPOS>ATOM
   1 C1          -1.2929    -0.7199     0.1087 C.3          1    LIG   0.0000
   2 C2           0.0281     0.0313     0.0626 C.2          1    LIG   0.0000
   3 N3           0.0080     1.3538     0.0816 N.2          1    LIG   0.0000
   4 C4           1.1470     2.1046     0.0608 C.2          1    LIG   0.0000
   5 O5           1.3391     3.4086     0.1078 O.2          1    LIG   0.0000
   6 C6           2.6249     3.6652     0.0796 C.2          1    LIG   0.0000
   7 C7           3.2881     2.4829    -0.0613 C.2          1    LIG   0.0000
   8 C8           2.3266     1.4374    -0.0260 C.2          1    LIG   0.0000
   9 C9           2.3628     0.0118    -0.0491 C.2          1    LIG   0.0000
  10 N10          3.3305    -0.8795    -0.1163 N.2          1    LIG   0.0000
  11 C11          2.7698    -2.1221    -0.0845 C.2          1    LIG   0.0000
  12 N12          1.4686    -1.9660    -0.0078 N.2          1    LIG   0.0000
  13 N13          1.2022    -0.6774     0.0081 N.pl3        1    LIG   0.0000
  14 C14          4.8077     2.4054    -0.2095 C.3          1    LIG   0.0000
  15 C15          5.5502     3.5786     0.4116 C.3          1    LIG   0.0000
  16 C16          7.0533     3.5379     0.1792 C.3          1    LIG   0.0000
  17 C17          5.3578     3.6863     1.9163 C.3          1    LIG   0.0000
  18 S18          4.8809     5.0096    -0.4637 S.3          1    LIG   0.0000
  19 C19          3.2047     5.0653     0.2085 C.3          1    LIG   0.0000
  20 H           -1.1175    -1.7042     0.0878 H            1    LIG   0.0000
  21 H           -1.7802    -0.4860     0.9500 H            1    LIG   0.0000
  22 H           -1.8498    -0.4636    -0.6813 H            1    LIG   0.0000
  23 H            3.2602    -2.9931    -0.1142 H            1    LIG   0.0000
  24 H            5.0274     2.3748    -1.1845 H            1    LIG   0.0000
  25 H            5.1241     1.5647     0.2301 H            1    LIG   0.0000
  26 H            7.4432     2.7507     0.6570 H            1    LIG   0.0000
  27 H            7.2370     3.4578    -0.8005 H            1    LIG   0.0000
  28 H            7.4674     4.3785     0.5284 H            1    LIG   0.0000
  29 H            5.7413     2.8764     2.3602 H            1    LIG   0.0000
  30 H            5.8240     4.5039     2.2543 H            1    LIG   0.0000
  31 H            4.3816     3.7494     2.1239 H            1    LIG   0.0000
  32 H            2.6490     5.7158    -0.3092 H            1    LIG   0.0000
  33 H            3.2296     5.3392     1.1699 H            1    LIG   0.0000
@<TRIPOS>BOND
   1        1        2 1
   2        2        3 2
   3        3        4 1
   4        4        5 1
   5        5        6 1
   6        6        7 2
   7        7        8 1
   8        8        4 2
   9        8        9 1
  10        9       10 2
  11       10       11 1
  12       11       12 2
  13       12       13 1
  14       13        2 1
  15       13        9 1
  16        7       14 1
  17       14       15 1
  18       15       16 1
  19       15       17 1
  20       15       18 1
  21       18       19 1
  22       19        6 1
  23        1       20 1
  24        1       21 1
  25        1       22 1
  26       11       23 1
  27       14       24 1
  28       14       25 1
  29       16       26 1
  30       16       27 1
  31       16       28 1
  32       17       29 1
  33       17       30 1
  34       17       31 1
  35       19       32 1
  36       19       33 1

@<TRIPOS>MOLECULE

  33   36
SMALL
USER_CHARGES
@<TRIPOS>ATOM
   1 C1          -1.3108    -0.7030     0.0919 C.3          1    LIG   0.0000
   2 C2           0.0048     0.0558     0.0453 C.2          1    LIG   0.0000
   3 N3           0.0061     1.3766     0.0539 N.2          1    LIG   0.0000
   4 C4           1.1489     2.1208     0.0095 C.2          1    LIG   0.0000
   5 O5           1.3722     3.4184     0.0158 O.2          1    LIG   0.0000
   6 C6           2.6541     3.6829    -0.0592 C.2          1    LIG   0.0000
   7 C7           3.2962     2.4860    -0.1126 C.2          1    LIG   0.0000
   8 C8           2.3257     1.4599    -0.0519 C.2          1    LIG   0.0000
   9 C9           2.3549     0.0308    -0.0518 C.2          1    LIG   0.0000
  10 N10          3.3118    -0.8840    -0.0937 N.2          1    LIG   0.0000
  11 C11          2.7253    -2.1153    -0.0729 C.2          1    LIG   0.0000
  12 N12          1.4252    -1.9331    -0.0181 N.2          1    LIG   0.0000
  13 N13          1.1803    -0.6400    -0.0043 N.pl3        1    LIG   0.0000
  14 C14          4.8072     2.3550    -0.2193 C.3          1    LIG   0.0000
  15 C15          5.3512     3.2580    -1.3167 C.3          1    LIG   0.0000
  16 C16          6.8666     3.1563    -1.3387 C.3          1    LIG   0.0000
  17 C17          4.8540     2.8285    -2.6883 C.3          1    LIG   0.0000
  18 S18          4.9152     4.9818    -0.9742 S.3          1    LIG   0.0000
  19 C19          3.3364     5.0397    -0.0876 C.3          1    LIG   0.0000
  20 H           -1.1291    -1.6863     0.0783 H            1    LIG   0.0000
  21 H           -1.8025    -0.4665     0.9299 H            1    LIG   0.0000
  22 H           -1.8665    -0.4557    -0.7018 H            1    LIG   0.0000
  23 H            3.1984    -2.9960    -0.0954 H            1    LIG   0.0000
  24 H            5.0399     1.4057    -0.4304 H            1    LIG   0.0000
  25 H            5.2212     2.6136     0.6534 H            1    LIG   0.0000
  26 H            7.1346     2.2113    -1.5264 H            1    LIG   0.0000
  27 H            7.2305     3.7542    -2.0529 H            1    LIG   0.0000
  28 H            7.2323     3.4364    -0.4511 H            1    LIG   0.0000
  29 H            5.1077     1.8750    -2.8513 H            1    LIG   0.0000
  30 H            3.8589     2.9197    -2.7258 H            1    LIG   0.0000
  31 H            5.2686     3.4082    -3.3898 H            1    LIG   0.0000
  32 H            2.7338     5.6954    -0.5424 H            1    LIG   0.0000
  33 H            3.5039     5.3373     0.8523 H            1    LIG   0.0000
@<TRIPOS>BOND
   1        1        2 1
   2        2        3 2
   3        3        4 1
   4        4        5 1
   5        5        6 1
   6        6        7 2
   7        7        8 1
   8        8        4 2
   9        8        9 1
  10        9       10 2
  11       10       11 1
  12       11       12 2
  13       12       13 1
  14       13        2 1
  15       13        9 1
  16        7       14 1
  17       14       15 1
  18       15       16 1
  19       15       17 1
  20       15       18 1
  21       18       19 1
  22       19        6 1
  23        1       20 1
  24        1       21 1
  25        1       22 1
  26       11       23 1
  27       14       24 1
  28       14       25 1
  29       16       26 1
  30       16       27 1
  31       16       28 1
  32       17       29 1
  33       17       30 1
  34       17       31 1
  35       19       32 1
  36       19       33 1

@<TRIPOS>MOLECULE

  33   36
SMALL
USER_CHARGES
@<TRIPOS>ATOM
   1 C1          -1.2675    -0.7348     0.0445 C.3          1    LIG   0.0000
   2 C2           0.0391     0.0442     0.0215 C.2          1    LIG   0.0000
   3 N3           0.0572     1.3676     0.0144 N.2          1    LIG   0.0000
   4 C4           1.2198     2.0978    -0.0035 C.2          1    LIG   0.0000
   5 O5           1.4255     3.3985    -0.0334 O.2          1    LIG   0.0000
   6 C6           2.6946     3.7033    -0.0683 C.2          1    LIG   0.0000
   7 C7           3.3750     2.5146     0.0210 C.2          1    LIG   0.0000
   8 C8           2.4209     1.4638    -0.0064 C.2          1    LIG   0.0000
   9 C9           2.3958     0.0328    -0.0171 C.2          1    LIG   0.0000
  10 N10          3.3442    -0.8877    -0.0439 N.2          1    LIG   0.0000
  11 C11          2.7709    -2.1252    -0.0169 C.2          1    LIG   0.0000
  12 N12          1.4714    -1.9462     0.0173 N.2          1    LIG   0.0000
  13 N13          1.2232    -0.6501     0.0083 N.pl3        1    LIG   0.0000
  14 C14          4.8975     2.4657     0.1132 C.3          1    LIG   0.0000
  15 C15          5.6221     3.6740    -0.4702 C.3          1    LIG   0.0000
  16 C16          7.1164     3.6617    -0.1853 C.3          1    LIG   0.0000
  17 C17          5.4406     3.8711    -1.9709 C.3          1    LIG   0.0000
  18 S18          4.9479     5.0940     0.4210 S.3          1    LIG   0.0000
  19 C19          3.2458     5.1122    -0.1880 C.3          1    LIG   0.0000
  20 H           -1.0710    -1.7153     0.0467 H            1    LIG   0.0000
  21 H           -1.7833    -0.4964     0.8674 H            1    LIG   0.0000
  22 H           -1.8071    -0.5048    -0.7654 H            1    LIG   0.0000
  23 H            3.2503    -3.0028    -0.0222 H            1    LIG   0.0000
  24 H            5.2110     1.6514    -0.3753 H            1    LIG   0.0000
  25 H            5.1468     2.3919     1.0788 H            1    LIG   0.0000
  26 H            7.5396     2.8893    -0.6589 H            1    LIG   0.0000
  27 H            7.5244     4.5153    -0.5090 H            1    LIG   0.0000
  28 H            7.2673     3.5723     0.7992 H            1    LIG   0.0000
  29 H            5.8154     3.0825    -2.4584 H            1    LIG   0.0000
  30 H            4.4668     3.9603    -2.1800 H            1    LIG   0.0000
  31 H            5.9206     4.6998    -2.2587 H            1    LIG   0.0000
  32 H            3.2299     5.4035    -1.1445 H            1    LIG   0.0000
  33 H            2.6949     5.7407     0.3611 H            1    LIG   0.0000
@<TRIPOS>BOND
   1        1        2 1
   2        2        3 2
   3        3        4 1
   4        4        5 1
   5        5        6 1
   6        6        7 2
   7        7        8 1
   8        8        4 2
   9        8        9 1
  10        9       10 2
  11       10       11 1
  12       11       12 2
  13       12       13 1
  14       13        2 1
  15       13        9 1
  16        7       14 1
  17       14       15 1
  18       15       16 1
  19       15       17 1
  20       15       18 1
  21       18       19 1
  22       19        6 1
  23        1       20 1
  24        1       21 1
  25        1       22 1
  26       11       23 1
  27       14       24 1
  28       14       25 1
  29       16       26 1
  30       16       27 1
  31       16       28 1
  32       17       29 1
  33       17       30 1
  34       17       31 1
  35       19       32 1
  36       19       33 1

@<TRIPOS>MOLECULE

  33   36
SMALL
USER_CHARGES
@<TRIPOS>ATOM
   1 C1          -1.2825    -0.7282     0.0582 C.3          1    LIG   0.0000
   2 C2           0.0268     0.0441     0.0299 C.2          1    LIG   0.0000
   3 N3           0.0243     1.3657     0.0338 N.2          1    LIG   0.0000
   4 C4           1.1671     2.1153     0.0191 C.2          1    LIG   0.0000
   5 O5           1.3955     3.4094     0.0124 O.2          1    LIG   0.0000
   6 C6           2.6695     3.6900     0.0294 C.2          1    LIG   0.0000
   7 C7           3.3097     2.4974     0.0237 C.2          1    LIG   0.0000
   8 C8           2.3447     1.4567     0.0003 C.2          1    LIG   0.0000
   9 C9           2.3634     0.0298    -0.0212 C.2          1    LIG   0.0000
  10 N10          3.3192    -0.8802    -0.0537 N.2          1    LIG   0.0000
  11 C11          2.7589    -2.1224    -0.0368 C.2          1    LIG   0.0000
  12 N12          1.4575    -1.9553     0.0010 N.2          1    LIG   0.0000
  13 N13          1.2002    -0.6644     0.0022 N.pl3        1    LIG   0.0000
  14 C14          4.8302     2.4454     0.0511 C.3          1    LIG   0.0000
  15 C15          5.3145     3.3291     1.1899 C.3          1    LIG   0.0000
  16 C16          6.8329     3.3196     1.1721 C.3          1    LIG   0.0000
  17 C17          4.8831     2.7671     2.5365 C.3          1    LIG   0.0000
  18 S18          4.7878     5.0524     1.0160 S.3          1    LIG   0.0000
  19 C19          3.2538     5.0933     0.0570 C.3          1    LIG   0.0000
  20 H           -1.0907    -1.7096     0.0509 H            1    LIG   0.0000
  21 H           -1.7898    -0.4939     0.8875 H            1    LIG   0.0000
  22 H           -1.8280    -0.4891    -0.7451 H            1    LIG   0.0000
  23 H            3.2466    -2.9953    -0.0507 H            1    LIG   0.0000
  24 H            5.1963     2.7808    -0.8169 H            1    LIG   0.0000
  25 H            5.1343     1.5044     0.1998 H            1    LIG   0.0000
  26 H            7.1614     2.3798     1.2664 H            1    LIG   0.0000
  27 H            7.1585     3.7013     0.3071 H            1    LIG   0.0000
  28 H            7.1786     3.8713     1.9311 H            1    LIG   0.0000
  29 H            5.1831     1.8162     2.6124 H            1    LIG   0.0000
  30 H            5.2960     3.3064     3.2704 H            1    LIG   0.0000
  31 H            3.8869     2.8093     2.6116 H            1    LIG   0.0000
  32 H            3.4464     5.3976    -0.8759 H            1    LIG   0.0000
  33 H            2.6042     5.7215     0.4851 H            1    LIG   0.0000
@<TRIPOS>BOND
   1        1        2 1
   2        2        3 2
   3        3        4 1
   4        4        5 1
   5        5        6 1
   6        6        7 2
   7        7        8 1
   8        8        4 2
   9        8        9 1
  10        9       10 2
  11       10       11 1
  12       11       12 2
  13       12       13 1
  14       13        2 1
  15       13        9 1
  16        7       14 1
  17       14       15 1
  18       15       16 1
  19       15       17 1
  20       15       18 1
  21       18       19 1
  22       19        6 1
  23        1       20 1
  24        1       21 1
  25        1       22 1
  26       11       23 1
  27       14       24 1
  28       14       25 1
  29       16       26 1
  30       16       27 1
  31       16       28 1
  32       17       29 1
  33       17       30 1
  34       17       31 1
  35       19       32 1
  36       19       33 1

