@<TRIPOS>MOLECULE
*****
 33 36 0 0 0
SMALL
USER_CHARGES

@<TRIPOS>ATOM
      1 C1         -1.2825   -0.7282    0.0582 C.3     1  LIG1        0.0000
      2 C2          0.0268    0.0441    0.0299 C.2     1  LIG1        0.0000
      3 N3          0.0243    1.3657    0.0338 N.2     1  LIG1        0.0000
      4 C4          1.1671    2.1153    0.0191 C.2     1  LIG1        0.0000
      5 O5          1.3955    3.4094    0.0124 O.2     1  LIG1        0.0000
      6 C6          2.6695    3.6900    0.0294 C.2     1  LIG1        0.0000
      7 C7          3.3097    2.4974    0.0237 C.2     1  LIG1        0.0000
      8 C8          2.3447    1.4567    0.0003 C.2     1  LIG1        0.0000
      9 C9          2.3634    0.0298   -0.0212 C.2     1  LIG1        0.0000
     10 N10         3.3192   -0.8802   -0.0537 N.2     1  LIG1        0.0000
     11 C11         2.7589   -2.1224   -0.0368 C.2     1  LIG1        0.0000
     12 N12         1.4575   -1.9553    0.0010 N.2     1  LIG1        0.0000
     13 N13         1.2002   -0.6644    0.0022 N.pl3   1  LIG1        0.0000
     14 C14         4.8302    2.4454    0.0511 C.3     1  LIG1        0.0000
     15 C15         5.3145    3.3291    1.1899 C.3     1  LIG1        0.0000
     16 C16         6.8329    3.3196    1.1721 C.3     1  LIG1        0.0000
     17 C17         4.8831    2.7671    2.5365 C.3     1  LIG1        0.0000
     18 S18         4.7878    5.0524    1.0160 S.3     1  LIG1        0.0000
     19 C19         3.2538    5.0933    0.0570 C.3     1  LIG1        0.0000
     20 H          -1.0907   -1.7096    0.0509 H       1  LIG1        0.0000
     21 H          -1.7898   -0.4939    0.8875 H       1  LIG1        0.0000
     22 H          -1.8280   -0.4891   -0.7451 H       1  LIG1        0.0000
     23 H           3.2466   -2.9953   -0.0507 H       1  LIG1        0.0000
     24 H           5.1963    2.7808   -0.8169 H       1  LIG1        0.0000
     25 H           5.1343    1.5044    0.1998 H       1  LIG1        0.0000
     26 H           7.1614    2.3798    1.2664 H       1  LIG1        0.0000
     27 H           7.1585    3.7013    0.3071 H       1  LIG1        0.0000
     28 H           7.1786    3.8713    1.9311 H       1  LIG1        0.0000
     29 H           5.1831    1.8162    2.6124 H       1  LIG1        0.0000
     30 H           5.2960    3.3064    3.2704 H       1  LIG1        0.0000
     31 H           3.8869    2.8093    2.6116 H       1  LIG1        0.0000
     32 H           3.4464    5.3976   -0.8759 H       1  LIG1        0.0000
     33 H           2.6042    5.7215    0.4851 H       1  LIG1        0.0000
@<TRIPOS>BOND
     1     1     2    1
     2     2     3    2
     3     3     4    1
     4     4     5    1
     5     5     6    1
     6     6     7    2
     7     7     8    1
     8     8     4    2
     9     8     9    1
    10     9    10    2
    11    10    11    1
    12    11    12    2
    13    12    13    1
    14    13     2    1
    15    13     9    1
    16     7    14    1
    17    14    15    1
    18    15    16    1
    19    15    17    1
    20    15    18    1
    21    18    19    1
    22    19     6    1
    23     1    20    1
    24     1    21    1
    25     1    22    1
    26    11    23    1
    27    14    24    1
    28    14    25    1
    29    16    26    1
    30    16    27    1
    31    16    28    1
    32    17    29    1
    33    17    30    1
    34    17    31    1
    35    19    32    1
    36    19    33    1
