@<TRIPOS>MOLECULE
*****
 33 36 0 0 0
SMALL
USER_CHARGES

@<TRIPOS>ATOM
      1 C1         -1.3108   -0.7030    0.0919 C.3     1  LIG1        0.0000
      2 C2          0.0048    0.0558    0.0453 C.2     1  LIG1        0.0000
      3 N3          0.0061    1.3766    0.0539 N.2     1  LIG1        0.0000
      4 C4          1.1489    2.1208    0.0095 C.2     1  LIG1        0.0000
      5 O5          1.3722    3.4184    0.0158 O.2     1  LIG1        0.0000
      6 C6          2.6541    3.6829   -0.0592 C.2     1  LIG1        0.0000
      7 C7          3.2962    2.4860   -0.1126 C.2     1  LIG1        0.0000
      8 C8          2.3257    1.4599   -0.0519 C.2     1  LIG1        0.0000
      9 C9          2.3549    0.0308   -0.0518 C.2     1  LIG1        0.0000
     10 N10         3.3118   -0.8840   -0.0937 N.2     1  LIG1        0.0000
     11 C11         2.7253   -2.1153   -0.0729 C.2     1  LIG1        0.0000
     12 N12         1.4252   -1.9331   -0.0181 N.2     1  LIG1        0.0000
     13 N13         1.1803   -0.6400   -0.0043 N.pl3   1  LIG1        0.0000
     14 C14         4.8072    2.3550   -0.2193 C.3     1  LIG1        0.0000
     15 C15         5.3512    3.2580   -1.3167 C.3     1  LIG1        0.0000
     16 C16         6.8666    3.1563   -1.3387 C.3     1  LIG1        0.0000
     17 C17         4.8540    2.8285   -2.6883 C.3     1  LIG1        0.0000
     18 S18         4.9152    4.9818   -0.9742 S.3     1  LIG1        0.0000
     19 C19         3.3364    5.0397   -0.0876 C.3     1  LIG1        0.0000
     20 H          -1.1291   -1.6863    0.0783 H       1  LIG1        0.0000
     21 H          -1.8025   -0.4665    0.9299 H       1  LIG1        0.0000
     22 H          -1.8665   -0.4557   -0.7018 H       1  LIG1        0.0000
     23 H           3.1984   -2.9960   -0.0954 H       1  LIG1        0.0000
     24 H           5.0399    1.4057   -0.4304 H       1  LIG1        0.0000
     25 H           5.2212    2.6136    0.6534 H       1  LIG1        0.0000
     26 H           7.1346    2.2113   -1.5264 H       1  LIG1        0.0000
     27 H           7.2305    3.7542   -2.0529 H       1  LIG1        0.0000
     28 H           7.2323    3.4364   -0.4511 H       1  LIG1        0.0000
     29 H           5.1077    1.8750   -2.8513 H       1  LIG1        0.0000
     30 H           3.8589    2.9197   -2.7258 H       1  LIG1        0.0000
     31 H           5.2686    3.4082   -3.3898 H       1  LIG1        0.0000
     32 H           2.7338    5.6954   -0.5424 H       1  LIG1        0.0000
     33 H           3.5039    5.3373    0.8523 H       1  LIG1        0.0000
@<TRIPOS>BOND
     1     1     2    1
     2     2     3    2
     3     3     4    1
     4     4     5    1
     5     5     6    1
     6     6     7    2
     7     7     8    1
     8     8     4    2
     9     8     9    1
    10     9    10    2
    11    10    11    1
    12    11    12    2
    13    12    13    1
    14    13     2    1
    15    13     9    1
    16     7    14    1
    17    14    15    1
    18    15    16    1
    19    15    17    1
    20    15    18    1
    21    18    19    1
    22    19     6    1
    23     1    20    1
    24     1    21    1
    25     1    22    1
    26    11    23    1
    27    14    24    1
    28    14    25    1
    29    16    26    1
    30    16    27    1
    31    16    28    1
    32    17    29    1
    33    17    30    1
    34    17    31    1
    35    19    32    1
    36    19    33    1
