@<TRIPOS>MOLECULE
*****
 33 36 0 0 0
SMALL
USER_CHARGES

@<TRIPOS>ATOM
      1 C1         -1.2675   -0.7348    0.0445 C.3     1  LIG1        0.0000
      2 C2          0.0391    0.0442    0.0215 C.2     1  LIG1        0.0000
      3 N3          0.0572    1.3676    0.0144 N.2     1  LIG1        0.0000
      4 C4          1.2198    2.0978   -0.0035 C.2     1  LIG1        0.0000
      5 O5          1.4255    3.3985   -0.0334 O.2     1  LIG1        0.0000
      6 C6          2.6946    3.7033   -0.0683 C.2     1  LIG1        0.0000
      7 C7          3.3750    2.5146    0.0210 C.2     1  LIG1        0.0000
      8 C8          2.4209    1.4638   -0.0064 C.2     1  LIG1        0.0000
      9 C9          2.3958    0.0328   -0.0171 C.2     1  LIG1        0.0000
     10 N10         3.3442   -0.8877   -0.0439 N.2     1  LIG1        0.0000
     11 C11         2.7709   -2.1252   -0.0169 C.2     1  LIG1        0.0000
     12 N12         1.4714   -1.9462    0.0173 N.2     1  LIG1        0.0000
     13 N13         1.2232   -0.6501    0.0083 N.pl3   1  LIG1        0.0000
     14 C14         4.8975    2.4657    0.1132 C.3     1  LIG1        0.0000
     15 C15         5.6221    3.6740   -0.4702 C.3     1  LIG1        0.0000
     16 C16         7.1164    3.6617   -0.1853 C.3     1  LIG1        0.0000
     17 C17         5.4406    3.8711   -1.9709 C.3     1  LIG1        0.0000
     18 S18         4.9479    5.0940    0.4210 S.3     1  LIG1        0.0000
     19 C19         3.2458    5.1122   -0.1880 C.3     1  LIG1        0.0000
     20 H          -1.0710   -1.7153    0.0467 H       1  LIG1        0.0000
     21 H          -1.7833   -0.4964    0.8674 H       1  LIG1        0.0000
     22 H          -1.8071   -0.5048   -0.7654 H       1  LIG1        0.0000
     23 H           3.2503   -3.0028   -0.0222 H       1  LIG1        0.0000
     24 H           5.2110    1.6514   -0.3753 H       1  LIG1        0.0000
     25 H           5.1468    2.3919    1.0788 H       1  LIG1        0.0000
     26 H           7.5396    2.8893   -0.6589 H       1  LIG1        0.0000
     27 H           7.5244    4.5153   -0.5090 H       1  LIG1        0.0000
     28 H           7.2673    3.5723    0.7992 H       1  LIG1        0.0000
     29 H           5.8154    3.0825   -2.4584 H       1  LIG1        0.0000
     30 H           4.4668    3.9603   -2.1800 H       1  LIG1        0.0000
     31 H           5.9206    4.6998   -2.2587 H       1  LIG1        0.0000
     32 H           3.2299    5.4035   -1.1445 H       1  LIG1        0.0000
     33 H           2.6949    5.7407    0.3611 H       1  LIG1        0.0000
@<TRIPOS>BOND
     1     1     2    1
     2     2     3    2
     3     3     4    1
     4     4     5    1
     5     5     6    1
     6     6     7    2
     7     7     8    1
     8     8     4    2
     9     8     9    1
    10     9    10    2
    11    10    11    1
    12    11    12    2
    13    12    13    1
    14    13     2    1
    15    13     9    1
    16     7    14    1
    17    14    15    1
    18    15    16    1
    19    15    17    1
    20    15    18    1
    21    18    19    1
    22    19     6    1
    23     1    20    1
    24     1    21    1
    25     1    22    1
    26    11    23    1
    27    14    24    1
    28    14    25    1
    29    16    26    1
    30    16    27    1
    31    16    28    1
    32    17    29    1
    33    17    30    1
    34    17    31    1
    35    19    32    1
    36    19    33    1
