@<TRIPOS>MOLECULE
*****
 33 36 0 0 0
SMALL
USER_CHARGES

@<TRIPOS>ATOM
      1 C1         -1.2929   -0.7199    0.1087 C.3     1  LIG1        0.0000
      2 C2          0.0281    0.0313    0.0626 C.2     1  LIG1        0.0000
      3 N3          0.0080    1.3538    0.0816 N.2     1  LIG1        0.0000
      4 C4          1.1470    2.1046    0.0608 C.2     1  LIG1        0.0000
      5 O5          1.3391    3.4086    0.1078 O.2     1  LIG1        0.0000
      6 C6          2.6249    3.6652    0.0796 C.2     1  LIG1        0.0000
      7 C7          3.2881    2.4829   -0.0613 C.2     1  LIG1        0.0000
      8 C8          2.3266    1.4374   -0.0260 C.2     1  LIG1        0.0000
      9 C9          2.3628    0.0118   -0.0491 C.2     1  LIG1        0.0000
     10 N10         3.3305   -0.8795   -0.1163 N.2     1  LIG1        0.0000
     11 C11         2.7698   -2.1221   -0.0845 C.2     1  LIG1        0.0000
     12 N12         1.4686   -1.9660   -0.0078 N.2     1  LIG1        0.0000
     13 N13         1.2022   -0.6774    0.0081 N.pl3   1  LIG1        0.0000
     14 C14         4.8077    2.4054   -0.2095 C.3     1  LIG1        0.0000
     15 C15         5.5502    3.5786    0.4116 C.3     1  LIG1        0.0000
     16 C16         7.0533    3.5379    0.1792 C.3     1  LIG1        0.0000
     17 C17         5.3578    3.6863    1.9163 C.3     1  LIG1        0.0000
     18 S18         4.8809    5.0096   -0.4637 S.3     1  LIG1        0.0000
     19 C19         3.2047    5.0653    0.2085 C.3     1  LIG1        0.0000
     20 H          -1.1175   -1.7042    0.0878 H       1  LIG1        0.0000
     21 H          -1.7802   -0.4860    0.9500 H       1  LIG1        0.0000
     22 H          -1.8498   -0.4636   -0.6813 H       1  LIG1        0.0000
     23 H           3.2602   -2.9931   -0.1142 H       1  LIG1        0.0000
     24 H           5.0274    2.3748   -1.1845 H       1  LIG1        0.0000
     25 H           5.1241    1.5647    0.2301 H       1  LIG1        0.0000
     26 H           7.4432    2.7507    0.6570 H       1  LIG1        0.0000
     27 H           7.2370    3.4578   -0.8005 H       1  LIG1        0.0000
     28 H           7.4674    4.3785    0.5284 H       1  LIG1        0.0000
     29 H           5.7413    2.8764    2.3602 H       1  LIG1        0.0000
     30 H           5.8240    4.5039    2.2543 H       1  LIG1        0.0000
     31 H           4.3816    3.7494    2.1239 H       1  LIG1        0.0000
     32 H           2.6490    5.7158   -0.3092 H       1  LIG1        0.0000
     33 H           3.2296    5.3392    1.1699 H       1  LIG1        0.0000
@<TRIPOS>BOND
     1     1     2    1
     2     2     3    2
     3     3     4    1
     4     4     5    1
     5     5     6    1
     6     6     7    2
     7     7     8    1
     8     8     4    2
     9     8     9    1
    10     9    10    2
    11    10    11    1
    12    11    12    2
    13    12    13    1
    14    13     2    1
    15    13     9    1
    16     7    14    1
    17    14    15    1
    18    15    16    1
    19    15    17    1
    20    15    18    1
    21    18    19    1
    22    19     6    1
    23     1    20    1
    24     1    21    1
    25     1    22    1
    26    11    23    1
    27    14    24    1
    28    14    25    1
    29    16    26    1
    30    16    27    1
    31    16    28    1
    32    17    29    1
    33    17    30    1
    34    17    31    1
    35    19    32    1
    36    19    33    1
