@<TRIPOS>MOLECULE

  54   59
SMALL
USER_CHARGES
@<TRIPOS>ATOM
   1 C1          -3.3318    -3.7124     0.0446 C.3          1    LIG   0.0000
   2 C2          -2.6865    -2.3359     0.0267 C.2          1    LIG   0.0000
   3 C3          -1.3481    -2.0893     0.0213 C.2          1    LIG   0.0000
   4 C4          -1.2188    -0.6851     0.0051 C.2          1    LIG   0.0000
   5 C5           0.0182     0.0726    -0.0044 C.ar         1    LIG   0.0000
   6 C6           1.1969    -0.6617     0.0025 C.ar         1    LIG   0.0000
   7 C7           2.3942     0.0432    -0.0027 C.ar         1    LIG   0.0000
   8 C8           3.6143    -0.7418     0.0046 C.2          1    LIG   0.0000
   9 O9           4.1200    -1.0744    -1.0316 O.2          1    LIG   0.0000
  10 N10          4.1891    -1.1034     1.1945 N.am         1    LIG   0.0000
  11 C11          5.3668    -1.8612     1.2016 C.2          1    LIG   0.0000
  12 N12          6.0044    -2.2641     2.2727 N.2          1    LIG   0.0000
  13 C13          7.0844    -2.9620     1.8248 C.2          1    LIG   0.0000
  14 C14          8.0803    -3.6007     2.6655 C.ar         1    LIG   0.0000
  15 C15          9.1308    -4.2783     2.0559 C.ar         1    LIG   0.0000
  16 C16         10.1008    -4.8983     2.8364 C.ar         1    LIG   0.0000
  17 C17         10.0035    -4.8291     4.2222 C.ar         1    LIG   0.0000
  18 C18         10.9743    -5.4517     4.9996 C.ar         1    LIG   0.0000
  19 C19         10.8722    -5.3804     6.3846 C.ar         1    LIG   0.0000
  20 C20          9.8178    -4.7000     6.9846 C.ar         1    LIG   0.0000
  21 C21          8.8596    -4.0860     6.1839 C.ar         1    LIG   0.0000
  22 C22          8.9388    -4.1419     4.7962 C.ar         1    LIG   0.0000
  23 N23          8.0207    -3.5555     4.0081 N.ar         1    LIG   0.0000
  24 N24          7.0805    -2.9660     0.5151 N.2          1    LIG   0.0000
  25 N25          6.0330    -2.2946     0.0956 N.pl3        1    LIG   0.0000
  26 C26          2.3904     1.4386    -0.0134 C.ar         1    LIG   0.0000
  27 C27          3.3770     2.4487    -0.0225 C.2          1    LIG   0.0000
  28 C28          4.8860     2.2674    -0.0129 C.3          1    LIG   0.0000
  29 N29          2.7668     3.6048    -0.0364 N.2          1    LIG   0.0000
  30 O30          1.5173     3.4240    -0.0420 O.2          1    LIG   0.0000
  31 C31          1.2095     2.1307    -0.0281 C.ar         1    LIG   0.0000
  32 N32          0.0654     1.4185    -0.0199 N.ar         1    LIG   0.0000
  33 C33         -2.4861    -0.1926     0.0039 C.2          1    LIG   0.0000
  34 C34         -2.8629     1.2789    -0.0139 C.3          1    LIG   0.0000
  35 O35         -3.3295    -1.1918     0.0184 O.2          1    LIG   0.0000
  36 H            5.7734    -2.1321    -0.8563 H            1    LIG   0.0000
  37 H           -2.6197    -4.4144     0.0480 H            1    LIG   0.0000
  38 H           -3.8957    -3.8056     0.8652 H            1    LIG   0.0000
  39 H           -3.9047    -3.8226    -0.7676 H            1    LIG   0.0000
  40 H           -0.6098    -2.7637     0.0275 H            1    LIG   0.0000
  41 H            1.1843    -1.6615     0.0109 H            1    LIG   0.0000
  42 H            3.7676    -0.8263     2.0579 H            1    LIG   0.0000
  43 H            9.1887    -4.3196     1.0584 H            1    LIG   0.0000
  44 H           10.8592    -5.3880     2.4063 H            1    LIG   0.0000
  45 H           11.7326    -5.9422     4.5701 H            1    LIG   0.0000
  46 H           11.5640    -5.8229     6.9552 H            1    LIG   0.0000
  47 H            9.7491    -4.6525     7.9811 H            1    LIG   0.0000
  48 H            8.1010    -3.5962     6.6135 H            1    LIG   0.0000
  49 H            5.1044     1.2916    -0.0028 H            1    LIG   0.0000
  50 H            5.2775     2.6882    -0.8312 H            1    LIG   0.0000
  51 H            5.2689     2.7031     0.8017 H            1    LIG   0.0000
  52 H           -2.0322     1.8356    -0.0227 H            1    LIG   0.0000
  53 H           -3.4040     1.4746    -0.8317 H            1    LIG   0.0000
  54 H           -3.4005     1.4953     0.8011 H            1    LIG   0.0000
@<TRIPOS>BOND
   1        1        2 1
   2        2        3 2
   3        3        4 1
   4        4        5 1
   5        5        6 ar
   6        6        7 ar
   7        7        8 1
   8        8        9 2
   9        8       10 am
  10       10       11 1
  11       11       12 2
  12       12       13 1
  13       13       14 1
  14       14       15 ar
  15       15       16 ar
  16       16       17 ar
  17       17       18 ar
  18       18       19 ar
  19       19       20 ar
  20       20       21 ar
  21       21       22 ar
  22       22       17 ar
  23       22       23 ar
  24       23       14 ar
  25       13       24 2
  26       24       25 1
  27       25       11 1
  28        7       26 ar
  29       26       27 1
  30       27       28 1
  31       27       29 2
  32       29       30 1
  33       30       31 1
  34       31       26 ar
  35       31       32 ar
  36       32        5 ar
  37        4       33 2
  38       33       34 1
  39       33       35 1
  40       35        2 1
  41       25       36 1
  42        1       37 1
  43        1       38 1
  44        1       39 1
  45        3       40 1
  46        6       41 1
  47       10       42 1
  48       15       43 1
  49       16       44 1
  50       18       45 1
  51       19       46 1
  52       20       47 1
  53       21       48 1
  54       28       49 1
  55       28       50 1
  56       28       51 1
  57       34       52 1
  58       34       53 1
  59       34       54 1

@<TRIPOS>MOLECULE

  54   59
SMALL
USER_CHARGES
@<TRIPOS>ATOM
   1 C1          -3.3318    -3.7124     0.0446 C.3          1    LIG   0.0000
   2 C2          -2.6865    -2.3359     0.0267 C.2          1    LIG   0.0000
   3 C3          -1.3481    -2.0893     0.0213 C.2          1    LIG   0.0000
   4 C4          -1.2188    -0.6851     0.0051 C.2          1    LIG   0.0000
   5 C5           0.0182     0.0726    -0.0044 C.ar         1    LIG   0.0000
   6 C6           1.1969    -0.6617     0.0025 C.ar         1    LIG   0.0000
   7 C7           2.3942     0.0432    -0.0027 C.ar         1    LIG   0.0000
   8 C8           3.6143    -0.7418     0.0046 C.2          1    LIG   0.0000
   9 O9           4.1200    -1.0744    -1.0316 O.2          1    LIG   0.0000
  10 N10          4.1891    -1.1034     1.1945 N.am         1    LIG   0.0000
  11 C11          5.3668    -1.8612     1.2016 C.2          1    LIG   0.0000
  12 N12          6.0044    -2.2641     2.2727 N.2          1    LIG   0.0000
  13 C13          7.0844    -2.9620     1.8248 C.2          1    LIG   0.0000
  14 C14          8.0803    -3.6007     2.6655 C.ar         1    LIG   0.0000
  15 C15          7.9434    -3.5091     4.0466 C.ar         1    LIG   0.0000
  16 C16          8.8815    -4.1129     4.8771 C.ar         1    LIG   0.0000
  17 C17          9.9471    -4.8030     4.3088 C.ar         1    LIG   0.0000
  18 C18         10.8843    -5.4042     5.1423 C.ar         1    LIG   0.0000
  19 C19         11.9482    -6.0924     4.5693 C.ar         1    LIG   0.0000
  20 C20         12.0759    -6.1784     3.1869 C.ar         1    LIG   0.0000
  21 C21         11.1247    -5.5678     2.3755 C.ar         1    LIG   0.0000
  22 C22         10.0506    -4.8738     2.9233 C.ar         1    LIG   0.0000
  23 N23          9.1237    -4.2769     2.1536 N.ar         1    LIG   0.0000
  24 N24          7.0805    -2.9660     0.5151 N.2          1    LIG   0.0000
  25 N25          6.0330    -2.2946     0.0956 N.pl3        1    LIG   0.0000
  26 C26          2.3904     1.4386    -0.0134 C.ar         1    LIG   0.0000
  27 C27          3.3770     2.4487    -0.0225 C.2          1    LIG   0.0000
  28 C28          4.8860     2.2674    -0.0129 C.3          1    LIG   0.0000
  29 N29          2.7668     3.6048    -0.0364 N.2          1    LIG   0.0000
  30 O30          1.5173     3.4240    -0.0420 O.2          1    LIG   0.0000
  31 C31          1.2095     2.1307    -0.0281 C.ar         1    LIG   0.0000
  32 N32          0.0654     1.4185    -0.0199 N.ar         1    LIG   0.0000
  33 C33         -2.4861    -0.1926     0.0039 C.2          1    LIG   0.0000
  34 C34         -2.8629     1.2789    -0.0139 C.3          1    LIG   0.0000
  35 O35         -3.3295    -1.1918     0.0184 O.2          1    LIG   0.0000
  36 H            5.7734    -2.1321    -0.8563 H            1    LIG   0.0000
  37 H           -2.6197    -4.4144     0.0480 H            1    LIG   0.0000
  38 H           -3.8957    -3.8056     0.8652 H            1    LIG   0.0000
  39 H           -3.9047    -3.8226    -0.7676 H            1    LIG   0.0000
  40 H           -0.6098    -2.7637     0.0275 H            1    LIG   0.0000
  41 H            1.1843    -1.6615     0.0109 H            1    LIG   0.0000
  42 H            3.7676    -0.8263     2.0579 H            1    LIG   0.0000
  43 H            7.1720    -3.0102     4.4417 H            1    LIG   0.0000
  44 H            8.7910    -4.0516     5.8711 H            1    LIG   0.0000
  45 H           10.7947    -5.3426     6.1363 H            1    LIG   0.0000
  46 H           12.6286    -6.5299     5.1572 H            1    LIG   0.0000
  47 H           12.8434    -6.6741     2.7804 H            1    LIG   0.0000
  48 H           11.2147    -5.6288     1.3814 H            1    LIG   0.0000
  49 H            5.1044     1.2916    -0.0028 H            1    LIG   0.0000
  50 H            5.2775     2.6882    -0.8312 H            1    LIG   0.0000
  51 H            5.2689     2.7031     0.8017 H            1    LIG   0.0000
  52 H           -2.0322     1.8356    -0.0227 H            1    LIG   0.0000
  53 H           -3.4040     1.4746    -0.8317 H            1    LIG   0.0000
  54 H           -3.4005     1.4953     0.8011 H            1    LIG   0.0000
@<TRIPOS>BOND
   1        1        2 1
   2        2        3 2
   3        3        4 1
   4        4        5 1
   5        5        6 ar
   6        6        7 ar
   7        7        8 1
   8        8        9 2
   9        8       10 am
  10       10       11 1
  11       11       12 2
  12       12       13 1
  13       13       14 1
  14       14       15 ar
  15       15       16 ar
  16       16       17 ar
  17       17       18 ar
  18       18       19 ar
  19       19       20 ar
  20       20       21 ar
  21       21       22 ar
  22       22       17 ar
  23       22       23 ar
  24       23       14 ar
  25       13       24 2
  26       24       25 1
  27       25       11 1
  28        7       26 ar
  29       26       27 1
  30       27       28 1
  31       27       29 2
  32       29       30 1
  33       30       31 1
  34       31       26 ar
  35       31       32 ar
  36       32        5 ar
  37        4       33 2
  38       33       34 1
  39       33       35 1
  40       35        2 1
  41       25       36 1
  42        1       37 1
  43        1       38 1
  44        1       39 1
  45        3       40 1
  46        6       41 1
  47       10       42 1
  48       15       43 1
  49       16       44 1
  50       18       45 1
  51       19       46 1
  52       20       47 1
  53       21       48 1
  54       28       49 1
  55       28       50 1
  56       28       51 1
  57       34       52 1
  58       34       53 1
  59       34       54 1

@<TRIPOS>MOLECULE

  54   59
SMALL
USER_CHARGES
@<TRIPOS>ATOM
   1 C1          -3.3318    -3.7124     0.0446 C.3          1    LIG   0.0000
   2 C2          -2.6865    -2.3359     0.0267 C.2          1    LIG   0.0000
   3 C3          -1.3481    -2.0893     0.0213 C.2          1    LIG   0.0000
   4 C4          -1.2188    -0.6851     0.0051 C.2          1    LIG   0.0000
   5 C5           0.0182     0.0726    -0.0044 C.ar         1    LIG   0.0000
   6 C6           1.1969    -0.6617     0.0025 C.ar         1    LIG   0.0000
   7 C7           2.3942     0.0432    -0.0027 C.ar         1    LIG   0.0000
   8 C8           3.6143    -0.7418     0.0046 C.2          1    LIG   0.0000
   9 O9           4.1200    -1.0744    -1.0316 O.2          1    LIG   0.0000
  10 N10          4.1891    -1.1034     1.1945 N.am         1    LIG   0.0000
  11 C11          5.3668    -1.8612     1.2016 C.2          1    LIG   0.0000
  12 N12          6.0067    -2.2804     0.1381 N.2          1    LIG   0.0000
  13 C13          7.0856    -2.9716     0.5990 C.2          1    LIG   0.0000
  14 C14          8.0867    -3.6178    -0.2297 C.ar         1    LIG   0.0000
  15 C15          9.1335    -4.2897     0.3926 C.ar         1    LIG   0.0000
  16 C16         10.1063    -4.9198    -0.3763 C.ar         1    LIG   0.0000
  17 C17         10.0148    -4.8675    -1.7632 C.ar         1    LIG   0.0000
  18 C18         10.9903    -5.4972    -2.5289 C.ar         1    LIG   0.0000
  19 C19         10.8949    -5.4414    -3.9151 C.ar         1    LIG   0.0000
  20 C20          9.8438    -4.7671    -4.5277 C.ar         1    LIG   0.0000
  21 C21          8.8813    -4.1452    -3.7386 C.ar         1    LIG   0.0000
  22 C22          8.9531    -4.1865    -2.3500 C.ar         1    LIG   0.0000
  23 N23          8.0323    -3.5896    -1.5730 N.ar         1    LIG   0.0000
  24 N24          7.0765    -2.9592     1.9086 N.2          1    LIG   0.0000
  25 N25          6.0278    -2.2819     2.3155 N.pl3        1    LIG   0.0000
  26 C26          2.3904     1.4386    -0.0134 C.ar         1    LIG   0.0000
  27 C27          3.3770     2.4487    -0.0225 C.2          1    LIG   0.0000
  28 C28          4.8860     2.2674    -0.0129 C.3          1    LIG   0.0000
  29 N29          2.7668     3.6048    -0.0364 N.2          1    LIG   0.0000
  30 O30          1.5173     3.4240    -0.0420 O.2          1    LIG   0.0000
  31 C31          1.2095     2.1307    -0.0281 C.ar         1    LIG   0.0000
  32 N32          0.0654     1.4185    -0.0199 N.ar         1    LIG   0.0000
  33 C33         -2.4861    -0.1926     0.0039 C.2          1    LIG   0.0000
  34 C34         -2.8629     1.2789    -0.0139 C.3          1    LIG   0.0000
  35 O35         -3.3295    -1.1918     0.0184 O.2          1    LIG   0.0000
  36 H            5.7642    -2.1077     3.2643 H            1    LIG   0.0000
  37 H           -2.6197    -4.4144     0.0480 H            1    LIG   0.0000
  38 H           -3.8957    -3.8056     0.8652 H            1    LIG   0.0000
  39 H           -3.9047    -3.8226    -0.7676 H            1    LIG   0.0000
  40 H           -0.6098    -2.7637     0.0275 H            1    LIG   0.0000
  41 H            1.1843    -1.6615     0.0109 H            1    LIG   0.0000
  42 H            3.7676    -0.8263     2.0579 H            1    LIG   0.0000
  43 H            9.1865    -4.3198     1.3907 H            1    LIG   0.0000
  44 H           10.8625    -5.4047     0.0629 H            1    LIG   0.0000
  45 H           11.7472    -5.9817    -2.0902 H            1    LIG   0.0000
  46 H           11.5891    -5.8908    -4.4774 H            1    LIG   0.0000
  47 H            9.7806    -4.7297    -5.5250 H            1    LIG   0.0000
  48 H            8.1248    -3.6601    -4.1773 H            1    LIG   0.0000
  49 H            5.1044     1.2916    -0.0028 H            1    LIG   0.0000
  50 H            5.2775     2.6882    -0.8312 H            1    LIG   0.0000
  51 H            5.2689     2.7031     0.8017 H            1    LIG   0.0000
  52 H           -2.0322     1.8356    -0.0227 H            1    LIG   0.0000
  53 H           -3.4040     1.4746    -0.8317 H            1    LIG   0.0000
  54 H           -3.4005     1.4953     0.8011 H            1    LIG   0.0000
@<TRIPOS>BOND
   1        1        2 1
   2        2        3 2
   3        3        4 1
   4        4        5 1
   5        5        6 ar
   6        6        7 ar
   7        7        8 1
   8        8        9 2
   9        8       10 am
  10       10       11 1
  11       11       12 2
  12       12       13 1
  13       13       14 1
  14       14       15 ar
  15       15       16 ar
  16       16       17 ar
  17       17       18 ar
  18       18       19 ar
  19       19       20 ar
  20       20       21 ar
  21       21       22 ar
  22       22       17 ar
  23       22       23 ar
  24       23       14 ar
  25       13       24 2
  26       24       25 1
  27       25       11 1
  28        7       26 ar
  29       26       27 1
  30       27       28 1
  31       27       29 2
  32       29       30 1
  33       30       31 1
  34       31       26 ar
  35       31       32 ar
  36       32        5 ar
  37        4       33 2
  38       33       34 1
  39       33       35 1
  40       35        2 1
  41       25       36 1
  42        1       37 1
  43        1       38 1
  44        1       39 1
  45        3       40 1
  46        6       41 1
  47       10       42 1
  48       15       43 1
  49       16       44 1
  50       18       45 1
  51       19       46 1
  52       20       47 1
  53       21       48 1
  54       28       49 1
  55       28       50 1
  56       28       51 1
  57       34       52 1
  58       34       53 1
  59       34       54 1

@<TRIPOS>MOLECULE

  54   59
SMALL
USER_CHARGES
@<TRIPOS>ATOM
   1 C1          -3.3318    -3.7124     0.0446 C.3          1    LIG   0.0000
   2 C2          -2.6865    -2.3359     0.0267 C.2          1    LIG   0.0000
   3 C3          -1.3481    -2.0893     0.0213 C.2          1    LIG   0.0000
   4 C4          -1.2188    -0.6851     0.0051 C.2          1    LIG   0.0000
   5 C5           0.0182     0.0726    -0.0044 C.ar         1    LIG   0.0000
   6 C6           1.1969    -0.6617     0.0025 C.ar         1    LIG   0.0000
   7 C7           2.3942     0.0432    -0.0027 C.ar         1    LIG   0.0000
   8 C8           3.6143    -0.7418     0.0046 C.2          1    LIG   0.0000
   9 O9           4.1200    -1.0744    -1.0316 O.2          1    LIG   0.0000
  10 N10          4.1891    -1.1034     1.1945 N.am         1    LIG   0.0000
  11 C11          5.3668    -1.8612     1.2016 C.2          1    LIG   0.0000
  12 N12          6.0067    -2.2804     0.1381 N.2          1    LIG   0.0000
  13 C13          7.0856    -2.9716     0.5990 C.2          1    LIG   0.0000
  14 C14          8.0867    -3.6178    -0.2297 C.ar         1    LIG   0.0000
  15 C15          7.9584    -3.5387    -1.6124 C.ar         1    LIG   0.0000
  16 C16          8.9037    -4.1468    -2.4316 C.ar         1    LIG   0.0000
  17 C17          9.9684    -4.8274    -1.8504 C.ar         1    LIG   0.0000
  18 C18         10.9110    -5.4358    -2.6726 C.ar         1    LIG   0.0000
  19 C19         11.9733    -6.1157    -2.0868 C.ar         1    LIG   0.0000
  20 C20         12.0927    -6.1886    -0.7030 C.ar         1    LIG   0.0000
  21 C21         11.1359    -5.5716     0.0970 C.ar         1    LIG   0.0000
  22 C22         10.0640    -4.8847    -0.4637 C.ar         1    LIG   0.0000
  23 N23          9.1301    -4.2844     0.2947 N.ar         1    LIG   0.0000
  24 N24          7.0765    -2.9592     1.9086 N.2          1    LIG   0.0000
  25 N25          6.0278    -2.2819     2.3155 N.pl3        1    LIG   0.0000
  26 C26          2.3904     1.4386    -0.0134 C.ar         1    LIG   0.0000
  27 C27          3.3770     2.4487    -0.0225 C.2          1    LIG   0.0000
  28 C28          4.8860     2.2674    -0.0129 C.3          1    LIG   0.0000
  29 N29          2.7668     3.6048    -0.0364 N.2          1    LIG   0.0000
  30 O30          1.5173     3.4240    -0.0420 O.2          1    LIG   0.0000
  31 C31          1.2095     2.1307    -0.0281 C.ar         1    LIG   0.0000
  32 N32          0.0654     1.4185    -0.0199 N.ar         1    LIG   0.0000
  33 C33         -2.4861    -0.1926     0.0039 C.2          1    LIG   0.0000
  34 C34         -2.8629     1.2789    -0.0139 C.3          1    LIG   0.0000
  35 O35         -3.3295    -1.1918     0.0184 O.2          1    LIG   0.0000
  36 H            5.7642    -2.1077     3.2643 H            1    LIG   0.0000
  37 H           -2.6197    -4.4144     0.0480 H            1    LIG   0.0000
  38 H           -3.8957    -3.8056     0.8652 H            1    LIG   0.0000
  39 H           -3.9047    -3.8226    -0.7676 H            1    LIG   0.0000
  40 H           -0.6098    -2.7637     0.0275 H            1    LIG   0.0000
  41 H            1.1843    -1.6615     0.0109 H            1    LIG   0.0000
  42 H            3.7676    -0.8263     2.0579 H            1    LIG   0.0000
  43 H            7.1880    -3.0457    -2.0167 H            1    LIG   0.0000
  44 H            8.8188    -4.0953    -3.4266 H            1    LIG   0.0000
  45 H           10.8263    -5.3852    -3.6677 H            1    LIG   0.0000
  46 H           12.6584    -6.5567    -2.6665 H            1    LIG   0.0000
  47 H           12.8583    -6.6795    -0.2872 H            1    LIG   0.0000
  48 H           11.2203    -5.6228     1.0921 H            1    LIG   0.0000
  49 H            5.1044     1.2916    -0.0028 H            1    LIG   0.0000
  50 H            5.2775     2.6882    -0.8312 H            1    LIG   0.0000
  51 H            5.2689     2.7031     0.8017 H            1    LIG   0.0000
  52 H           -2.0322     1.8356    -0.0227 H            1    LIG   0.0000
  53 H           -3.4040     1.4746    -0.8317 H            1    LIG   0.0000
  54 H           -3.4005     1.4953     0.8011 H            1    LIG   0.0000
@<TRIPOS>BOND
   1        1        2 1
   2        2        3 2
   3        3        4 1
   4        4        5 1
   5        5        6 ar
   6        6        7 ar
   7        7        8 1
   8        8        9 2
   9        8       10 am
  10       10       11 1
  11       11       12 2
  12       12       13 1
  13       13       14 1
  14       14       15 ar
  15       15       16 ar
  16       16       17 ar
  17       17       18 ar
  18       18       19 ar
  19       19       20 ar
  20       20       21 ar
  21       21       22 ar
  22       22       17 ar
  23       22       23 ar
  24       23       14 ar
  25       13       24 2
  26       24       25 1
  27       25       11 1
  28        7       26 ar
  29       26       27 1
  30       27       28 1
  31       27       29 2
  32       29       30 1
  33       30       31 1
  34       31       26 ar
  35       31       32 ar
  36       32        5 ar
  37        4       33 2
  38       33       34 1
  39       33       35 1
  40       35        2 1
  41       25       36 1
  42        1       37 1
  43        1       38 1
  44        1       39 1
  45        3       40 1
  46        6       41 1
  47       10       42 1
  48       15       43 1
  49       16       44 1
  50       18       45 1
  51       19       46 1
  52       20       47 1
  53       21       48 1
  54       28       49 1
  55       28       50 1
  56       28       51 1
  57       34       52 1
  58       34       53 1
  59       34       54 1

@<TRIPOS>MOLECULE

  54   59
SMALL
USER_CHARGES
@<TRIPOS>ATOM
   1 C1          -3.3318    -3.7124     0.0446 C.3          1    LIG   0.0000
   2 C2          -2.6865    -2.3359     0.0267 C.2          1    LIG   0.0000
   3 C3          -1.3481    -2.0893     0.0213 C.2          1    LIG   0.0000
   4 C4          -1.2188    -0.6851     0.0051 C.2          1    LIG   0.0000
   5 C5           0.0182     0.0726    -0.0044 C.ar         1    LIG   0.0000
   6 C6           1.1969    -0.6617     0.0025 C.ar         1    LIG   0.0000
   7 C7           2.3942     0.0432    -0.0027 C.ar         1    LIG   0.0000
   8 C8           3.6143    -0.7418     0.0046 C.2          1    LIG   0.0000
   9 O9           4.1177    -1.0586     1.0468 O.2          1    LIG   0.0000
  10 N10          4.1917    -1.1216    -1.1784 N.am         1    LIG   0.0000
  11 C11          5.3694    -1.8793    -1.1713 C.2          1    LIG   0.0000
  12 N12          6.0093    -2.2985    -2.2348 N.2          1    LIG   0.0000
  13 C13          7.0882    -2.9898    -1.7738 C.2          1    LIG   0.0000
  14 C14          8.0893    -3.6359    -2.6026 C.ar         1    LIG   0.0000
  15 C15          7.8878    -4.9593    -2.9802 C.ar         1    LIG   0.0000
  16 C16          8.8294    -5.6036    -3.7756 C.ar         1    LIG   0.0000
  17 C17          9.9634    -4.9089    -4.1831 C.ar         1    LIG   0.0000
  18 C18         10.9038    -5.5568    -4.9771 C.ar         1    LIG   0.0000
  19 C19         12.0362    -4.8583    -5.3813 C.ar         1    LIG   0.0000
  20 C20         12.2282    -3.5349    -4.9986 C.ar         1    LIG   0.0000
  21 C21         11.2723    -2.9101    -4.2037 C.ar         1    LIG   0.0000
  22 C22         10.1304    -3.5861    -3.7862 C.ar         1    LIG   0.0000
  23 N23          9.1979    -2.9976    -3.0167 N.ar         1    LIG   0.0000
  24 N24          7.0791    -2.9774    -0.4643 N.2          1    LIG   0.0000
  25 N25          6.0304    -2.3000    -0.0574 N.pl3        1    LIG   0.0000
  26 C26          2.3904     1.4386    -0.0134 C.ar         1    LIG   0.0000
  27 C27          3.3770     2.4487    -0.0225 C.2          1    LIG   0.0000
  28 C28          4.8860     2.2674    -0.0129 C.3          1    LIG   0.0000
  29 N29          2.7668     3.6048    -0.0364 N.2          1    LIG   0.0000
  30 O30          1.5173     3.4240    -0.0420 O.2          1    LIG   0.0000
  31 C31          1.2095     2.1307    -0.0281 C.ar         1    LIG   0.0000
  32 N32          0.0654     1.4185    -0.0199 N.ar         1    LIG   0.0000
  33 C33         -2.4861    -0.1926     0.0039 C.2          1    LIG   0.0000
  34 C34         -2.8629     1.2789    -0.0139 C.3          1    LIG   0.0000
  35 O35         -3.3295    -1.1918     0.0184 O.2          1    LIG   0.0000
  36 H            5.7669    -2.1259     0.8914 H            1    LIG   0.0000
  37 H           -2.6197    -4.4144     0.0480 H            1    LIG   0.0000
  38 H           -3.8957    -3.8056     0.8652 H            1    LIG   0.0000
  39 H           -3.9047    -3.8226    -0.7676 H            1    LIG   0.0000
  40 H           -0.6098    -2.7637     0.0275 H            1    LIG   0.0000
  41 H            1.1843    -1.6615     0.0109 H            1    LIG   0.0000
  42 H            3.7721    -0.8576    -2.0469 H            1    LIG   0.0000
  43 H            7.0676    -5.4466    -2.6804 H            1    LIG   0.0000
  44 H            8.6927    -6.5551    -4.0513 H            1    LIG   0.0000
  45 H           10.7679    -6.5085    -5.2525 H            1    LIG   0.0000
  46 H           12.7196    -5.3121    -5.9532 H            1    LIG   0.0000
  47 H           13.0448    -3.0377    -5.2917 H            1    LIG   0.0000
  48 H           11.4085    -1.9586    -3.9277 H            1    LIG   0.0000
  49 H            5.1044     1.2916    -0.0028 H            1    LIG   0.0000
  50 H            5.2775     2.6882    -0.8312 H            1    LIG   0.0000
  51 H            5.2689     2.7031     0.8017 H            1    LIG   0.0000
  52 H           -2.0322     1.8356    -0.0227 H            1    LIG   0.0000
  53 H           -3.4040     1.4746    -0.8317 H            1    LIG   0.0000
  54 H           -3.4005     1.4953     0.8011 H            1    LIG   0.0000
@<TRIPOS>BOND
   1        1        2 1
   2        2        3 2
   3        3        4 1
   4        4        5 1
   5        5        6 ar
   6        6        7 ar
   7        7        8 1
   8        8        9 2
   9        8       10 am
  10       10       11 1
  11       11       12 2
  12       12       13 1
  13       13       14 1
  14       14       15 ar
  15       15       16 ar
  16       16       17 ar
  17       17       18 ar
  18       18       19 ar
  19       19       20 ar
  20       20       21 ar
  21       21       22 ar
  22       22       17 ar
  23       22       23 ar
  24       23       14 ar
  25       13       24 2
  26       24       25 1
  27       25       11 1
  28        7       26 ar
  29       26       27 1
  30       27       28 1
  31       27       29 2
  32       29       30 1
  33       30       31 1
  34       31       26 ar
  35       31       32 ar
  36       32        5 ar
  37        4       33 2
  38       33       34 1
  39       33       35 1
  40       35        2 1
  41       25       36 1
  42        1       37 1
  43        1       38 1
  44        1       39 1
  45        3       40 1
  46        6       41 1
  47       10       42 1
  48       15       43 1
  49       16       44 1
  50       18       45 1
  51       19       46 1
  52       20       47 1
  53       21       48 1
  54       28       49 1
  55       28       50 1
  56       28       51 1
  57       34       52 1
  58       34       53 1
  59       34       54 1

@<TRIPOS>MOLECULE

  54   59
SMALL
USER_CHARGES
@<TRIPOS>ATOM
   1 C1          -3.3318    -3.7124     0.0446 C.3          1    LIG   0.0000
   2 C2          -2.6865    -2.3359     0.0267 C.2          1    LIG   0.0000
   3 C3          -1.3481    -2.0893     0.0213 C.2          1    LIG   0.0000
   4 C4          -1.2188    -0.6851     0.0051 C.2          1    LIG   0.0000
   5 C5           0.0182     0.0726    -0.0044 C.ar         1    LIG   0.0000
   6 C6           1.1969    -0.6617     0.0025 C.ar         1    LIG   0.0000
   7 C7           2.3942     0.0432    -0.0027 C.ar         1    LIG   0.0000
   8 C8           3.6143    -0.7418     0.0046 C.2          1    LIG   0.0000
   9 O9           4.1177    -1.0586     1.0468 O.2          1    LIG   0.0000
  10 N10          4.1917    -1.1216    -1.1784 N.am         1    LIG   0.0000
  11 C11          5.3694    -1.8793    -1.1713 C.2          1    LIG   0.0000
  12 N12          6.0093    -2.2985    -2.2348 N.2          1    LIG   0.0000
  13 C13          7.0882    -2.9898    -1.7738 C.2          1    LIG   0.0000
  14 C14          8.0893    -3.6359    -2.6026 C.ar         1    LIG   0.0000
  15 C15          9.2093    -2.9054    -2.9854 C.ar         1    LIG   0.0000
  16 C16         10.1858    -3.4993    -3.7779 C.ar         1    LIG   0.0000
  17 C17         10.0251    -4.8223    -4.1762 C.ar         1    LIG   0.0000
  18 C18         11.0028    -5.4124    -4.9701 C.ar         1    LIG   0.0000
  19 C19         10.8372    -6.7351    -5.3663 C.ar         1    LIG   0.0000
  20 C20          9.7136    -7.4571    -4.9778 C.ar         1    LIG   0.0000
  21 C21          8.7501    -6.8430    -4.1837 C.ar         1    LIG   0.0000
  22 C22          8.8919    -5.5214    -3.7732 C.ar         1    LIG   0.0000
  23 N23          7.9697    -4.9127    -3.0072 N.ar         1    LIG   0.0000
  24 N24          7.0791    -2.9774    -0.4643 N.2          1    LIG   0.0000
  25 N25          6.0304    -2.3000    -0.0574 N.pl3        1    LIG   0.0000
  26 C26          2.3904     1.4386    -0.0134 C.ar         1    LIG   0.0000
  27 C27          3.3770     2.4487    -0.0225 C.2          1    LIG   0.0000
  28 C28          4.8860     2.2674    -0.0129 C.3          1    LIG   0.0000
  29 N29          2.7668     3.6048    -0.0364 N.2          1    LIG   0.0000
  30 O30          1.5173     3.4240    -0.0420 O.2          1    LIG   0.0000
  31 C31          1.2095     2.1307    -0.0281 C.ar         1    LIG   0.0000
  32 N32          0.0654     1.4185    -0.0199 N.ar         1    LIG   0.0000
  33 C33         -2.4861    -0.1926     0.0039 C.2          1    LIG   0.0000
  34 C34         -2.8629     1.2789    -0.0139 C.3          1    LIG   0.0000
  35 O35         -3.3295    -1.1918     0.0184 O.2          1    LIG   0.0000
  36 H            5.7669    -2.1259     0.8914 H            1    LIG   0.0000
  37 H           -2.6197    -4.4144     0.0480 H            1    LIG   0.0000
  38 H           -3.8957    -3.8056     0.8652 H            1    LIG   0.0000
  39 H           -3.9047    -3.8226    -0.7676 H            1    LIG   0.0000
  40 H           -0.6098    -2.7637     0.0275 H            1    LIG   0.0000
  41 H            1.1843    -1.6615     0.0109 H            1    LIG   0.0000
  42 H            3.7721    -0.8576    -2.0469 H            1    LIG   0.0000
  43 H            9.3122    -1.9552    -2.6913 H            1    LIG   0.0000
  44 H           10.9939    -2.9812    -4.0581 H            1    LIG   0.0000
  45 H           11.8108    -4.8946    -5.2511 H            1    LIG   0.0000
  46 H           11.5331    -7.1717    -5.9364 H            1    LIG   0.0000
  47 H            9.5994    -8.4078    -5.2662 H            1    LIG   0.0000
  48 H            7.9417    -7.3606    -3.9033 H            1    LIG   0.0000
  49 H            5.1044     1.2916    -0.0028 H            1    LIG   0.0000
  50 H            5.2775     2.6882    -0.8312 H            1    LIG   0.0000
  51 H            5.2689     2.7031     0.8017 H            1    LIG   0.0000
  52 H           -2.0322     1.8356    -0.0227 H            1    LIG   0.0000
  53 H           -3.4040     1.4746    -0.8317 H            1    LIG   0.0000
  54 H           -3.4005     1.4953     0.8011 H            1    LIG   0.0000
@<TRIPOS>BOND
   1        1        2 1
   2        2        3 2
   3        3        4 1
   4        4        5 1
   5        5        6 ar
   6        6        7 ar
   7        7        8 1
   8        8        9 2
   9        8       10 am
  10       10       11 1
  11       11       12 2
  12       12       13 1
  13       13       14 1
  14       14       15 ar
  15       15       16 ar
  16       16       17 ar
  17       17       18 ar
  18       18       19 ar
  19       19       20 ar
  20       20       21 ar
  21       21       22 ar
  22       22       17 ar
  23       22       23 ar
  24       23       14 ar
  25       13       24 2
  26       24       25 1
  27       25       11 1
  28        7       26 ar
  29       26       27 1
  30       27       28 1
  31       27       29 2
  32       29       30 1
  33       30       31 1
  34       31       26 ar
  35       31       32 ar
  36       32        5 ar
  37        4       33 2
  38       33       34 1
  39       33       35 1
  40       35        2 1
  41       25       36 1
  42        1       37 1
  43        1       38 1
  44        1       39 1
  45        3       40 1
  46        6       41 1
  47       10       42 1
  48       15       43 1
  49       16       44 1
  50       18       45 1
  51       19       46 1
  52       20       47 1
  53       21       48 1
  54       28       49 1
  55       28       50 1
  56       28       51 1
  57       34       52 1
  58       34       53 1
  59       34       54 1

@<TRIPOS>MOLECULE

  54   59
SMALL
USER_CHARGES
@<TRIPOS>ATOM
   1 C1          -4.4908    -1.8045     1.2982 C.3          1    LIG   0.0000
   2 C2          -3.1895    -1.5079     0.5701 C.2          1    LIG   0.0000
   3 C3          -2.2329    -0.6327     0.9838 C.2          1    LIG   0.0000
   4 C4          -1.2188    -0.6851     0.0051 C.2          1    LIG   0.0000
   5 C5           0.0182     0.0726    -0.0044 C.ar         1    LIG   0.0000
   6 C6           1.1969    -0.6617     0.0025 C.ar         1    LIG   0.0000
   7 C7           2.3942     0.0432    -0.0027 C.ar         1    LIG   0.0000
   8 C8           3.6143    -0.7418     0.0046 C.2          1    LIG   0.0000
   9 O9           4.1177    -1.0586     1.0468 O.2          1    LIG   0.0000
  10 N10          4.1917    -1.1216    -1.1784 N.am         1    LIG   0.0000
  11 C11          5.3694    -1.8793    -1.1713 C.2          1    LIG   0.0000
  12 N12          6.0070    -2.2822    -0.1001 N.2          1    LIG   0.0000
  13 C13          7.0871    -2.9801    -0.5480 C.2          1    LIG   0.0000
  14 C14          8.0829    -3.6188     0.2927 C.ar         1    LIG   0.0000
  15 C15          9.1335    -4.2964    -0.3170 C.ar         1    LIG   0.0000
  16 C16         10.1034    -4.9164     0.4635 C.ar         1    LIG   0.0000
  17 C17         10.0061    -4.8473     1.8493 C.ar         1    LIG   0.0000
  18 C18         10.9769    -5.4699     2.6268 C.ar         1    LIG   0.0000
  19 C19         10.8748    -5.3985     4.0118 C.ar         1    LIG   0.0000
  20 C20          9.8204    -4.7181     4.6117 C.ar         1    LIG   0.0000
  21 C21          8.8622    -4.1042     3.8111 C.ar         1    LIG   0.0000
  22 C22          8.9414    -4.1600     2.4233 C.ar         1    LIG   0.0000
  23 N23          8.0233    -3.5737     1.6353 N.ar         1    LIG   0.0000
  24 N24          7.0832    -2.9841    -1.8577 N.2          1    LIG   0.0000
  25 N25          6.0356    -2.3127    -2.2772 N.pl3        1    LIG   0.0000
  26 C26          2.3904     1.4386    -0.0134 C.ar         1    LIG   0.0000
  27 C27          3.3770     2.4487    -0.0225 C.2          1    LIG   0.0000
  28 C28          4.8860     2.2674    -0.0129 C.3          1    LIG   0.0000
  29 N29          2.7668     3.6048    -0.0364 N.2          1    LIG   0.0000
  30 O30          1.5173     3.4240    -0.0420 O.2          1    LIG   0.0000
  31 C31          1.2095     2.1307    -0.0281 C.ar         1    LIG   0.0000
  32 N32          0.0654     1.4185    -0.0199 N.ar         1    LIG   0.0000
  33 C33         -1.6408    -1.5844    -0.9232 C.2          1    LIG   0.0000
  34 C34         -0.8804    -1.9849    -2.1759 C.3          1    LIG   0.0000
  35 O35         -2.8076    -2.0511    -0.5619 O.2          1    LIG   0.0000
  36 H            5.7760    -2.1502    -3.2291 H            1    LIG   0.0000
  37 H           -4.5366    -1.2585     2.1347 H            1    LIG   0.0000
  38 H           -5.2636    -1.5740     0.7069 H            1    LIG   0.0000
  39 H           -4.5281    -2.7761     1.5319 H            1    LIG   0.0000
  40 H           -2.2463    -0.0694     1.8099 H            1    LIG   0.0000
  41 H            1.1843    -1.6615     0.0109 H            1    LIG   0.0000
  42 H            3.7721    -0.8576    -2.0469 H            1    LIG   0.0000
  43 H            9.1913    -4.3377    -1.3145 H            1    LIG   0.0000
  44 H           10.8618    -5.4061     0.0335 H            1    LIG   0.0000
  45 H           11.7352    -5.9603     2.1972 H            1    LIG   0.0000
  46 H           11.5666    -5.8410     4.5824 H            1    LIG   0.0000
  47 H            9.7517    -4.6706     5.6082 H            1    LIG   0.0000
  48 H            8.1036    -3.6144     4.2407 H            1    LIG   0.0000
  49 H            5.1044     1.2916    -0.0028 H            1    LIG   0.0000
  50 H            5.2775     2.6882    -0.8312 H            1    LIG   0.0000
  51 H            5.2689     2.7031     0.8017 H            1    LIG   0.0000
  52 H           -0.0168    -1.4823    -2.2166 H            1    LIG   0.0000
  53 H           -0.6937    -2.9671    -2.1527 H            1    LIG   0.0000
  54 H           -1.4301    -1.7690    -2.9829 H            1    LIG   0.0000
@<TRIPOS>BOND
   1        1        2 1
   2        2        3 2
   3        3        4 1
   4        4        5 1
   5        5        6 ar
   6        6        7 ar
   7        7        8 1
   8        8        9 2
   9        8       10 am
  10       10       11 1
  11       11       12 2
  12       12       13 1
  13       13       14 1
  14       14       15 ar
  15       15       16 ar
  16       16       17 ar
  17       17       18 ar
  18       18       19 ar
  19       19       20 ar
  20       20       21 ar
  21       21       22 ar
  22       22       17 ar
  23       22       23 ar
  24       23       14 ar
  25       13       24 2
  26       24       25 1
  27       25       11 1
  28        7       26 ar
  29       26       27 1
  30       27       28 1
  31       27       29 2
  32       29       30 1
  33       30       31 1
  34       31       26 ar
  35       31       32 ar
  36       32        5 ar
  37        4       33 2
  38       33       34 1
  39       33       35 1
  40       35        2 1
  41       25       36 1
  42        1       37 1
  43        1       38 1
  44        1       39 1
  45        3       40 1
  46        6       41 1
  47       10       42 1
  48       15       43 1
  49       16       44 1
  50       18       45 1
  51       19       46 1
  52       20       47 1
  53       21       48 1
  54       28       49 1
  55       28       50 1
  56       28       51 1
  57       34       52 1
  58       34       53 1
  59       34       54 1

@<TRIPOS>MOLECULE

  54   59
SMALL
USER_CHARGES
@<TRIPOS>ATOM
   1 C1          -4.4908    -1.8045     1.2982 C.3          1    LIG   0.0000
   2 C2          -3.1895    -1.5079     0.5701 C.2          1    LIG   0.0000
   3 C3          -2.2329    -0.6327     0.9838 C.2          1    LIG   0.0000
   4 C4          -1.2188    -0.6851     0.0051 C.2          1    LIG   0.0000
   5 C5           0.0182     0.0726    -0.0044 C.ar         1    LIG   0.0000
   6 C6           1.1969    -0.6617     0.0025 C.ar         1    LIG   0.0000
   7 C7           2.3942     0.0432    -0.0027 C.ar         1    LIG   0.0000
   8 C8           3.6143    -0.7418     0.0046 C.2          1    LIG   0.0000
   9 O9           4.1177    -1.0586     1.0468 O.2          1    LIG   0.0000
  10 N10          4.1917    -1.1216    -1.1784 N.am         1    LIG   0.0000
  11 C11          5.3694    -1.8793    -1.1713 C.2          1    LIG   0.0000
  12 N12          6.0070    -2.2822    -0.1001 N.2          1    LIG   0.0000
  13 C13          7.0871    -2.9801    -0.5480 C.2          1    LIG   0.0000
  14 C14          8.0829    -3.6188     0.2927 C.ar         1    LIG   0.0000
  15 C15          7.9460    -3.5272     1.6738 C.ar         1    LIG   0.0000
  16 C16          8.8841    -4.1310     2.5043 C.ar         1    LIG   0.0000
  17 C17          9.9497    -4.8212     1.9359 C.ar         1    LIG   0.0000
  18 C18         10.8869    -5.4223     2.7694 C.ar         1    LIG   0.0000
  19 C19         11.9508    -6.1105     2.1964 C.ar         1    LIG   0.0000
  20 C20         12.0785    -6.1966     0.8141 C.ar         1    LIG   0.0000
  21 C21         11.1273    -5.5859     0.0027 C.ar         1    LIG   0.0000
  22 C22         10.0532    -4.8920     0.5504 C.ar         1    LIG   0.0000
  23 N23          9.1263    -4.2950    -0.2192 N.ar         1    LIG   0.0000
  24 N24          7.0832    -2.9841    -1.8577 N.2          1    LIG   0.0000
  25 N25          6.0356    -2.3127    -2.2772 N.pl3        1    LIG   0.0000
  26 C26          2.3904     1.4386    -0.0134 C.ar         1    LIG   0.0000
  27 C27          3.3770     2.4487    -0.0225 C.2          1    LIG   0.0000
  28 C28          4.8860     2.2674    -0.0129 C.3          1    LIG   0.0000
  29 N29          2.7668     3.6048    -0.0364 N.2          1    LIG   0.0000
  30 O30          1.5173     3.4240    -0.0420 O.2          1    LIG   0.0000
  31 C31          1.2095     2.1307    -0.0281 C.ar         1    LIG   0.0000
  32 N32          0.0654     1.4185    -0.0199 N.ar         1    LIG   0.0000
  33 C33         -1.6408    -1.5844    -0.9232 C.2          1    LIG   0.0000
  34 C34         -0.8804    -1.9849    -2.1759 C.3          1    LIG   0.0000
  35 O35         -2.8076    -2.0511    -0.5619 O.2          1    LIG   0.0000
  36 H            5.7760    -2.1502    -3.2291 H            1    LIG   0.0000
  37 H           -4.5366    -1.2585     2.1347 H            1    LIG   0.0000
  38 H           -5.2636    -1.5740     0.7069 H            1    LIG   0.0000
  39 H           -4.5281    -2.7761     1.5319 H            1    LIG   0.0000
  40 H           -2.2463    -0.0694     1.8099 H            1    LIG   0.0000
  41 H            1.1843    -1.6615     0.0109 H            1    LIG   0.0000
  42 H            3.7721    -0.8576    -2.0469 H            1    LIG   0.0000
  43 H            7.1746    -3.0283     2.0688 H            1    LIG   0.0000
  44 H            8.7936    -4.0697     3.4983 H            1    LIG   0.0000
  45 H           10.7973    -5.3607     3.7635 H            1    LIG   0.0000
  46 H           12.6312    -6.5481     2.7844 H            1    LIG   0.0000
  47 H           12.8460    -6.6922     0.4075 H            1    LIG   0.0000
  48 H           11.2173    -5.6469    -0.9914 H            1    LIG   0.0000
  49 H            5.1044     1.2916    -0.0028 H            1    LIG   0.0000
  50 H            5.2775     2.6882    -0.8312 H            1    LIG   0.0000
  51 H            5.2689     2.7031     0.8017 H            1    LIG   0.0000
  52 H           -0.0168    -1.4823    -2.2166 H            1    LIG   0.0000
  53 H           -0.6937    -2.9671    -2.1527 H            1    LIG   0.0000
  54 H           -1.4301    -1.7690    -2.9829 H            1    LIG   0.0000
@<TRIPOS>BOND
   1        1        2 1
   2        2        3 2
   3        3        4 1
   4        4        5 1
   5        5        6 ar
   6        6        7 ar
   7        7        8 1
   8        8        9 2
   9        8       10 am
  10       10       11 1
  11       11       12 2
  12       12       13 1
  13       13       14 1
  14       14       15 ar
  15       15       16 ar
  16       16       17 ar
  17       17       18 ar
  18       18       19 ar
  19       19       20 ar
  20       20       21 ar
  21       21       22 ar
  22       22       17 ar
  23       22       23 ar
  24       23       14 ar
  25       13       24 2
  26       24       25 1
  27       25       11 1
  28        7       26 ar
  29       26       27 1
  30       27       28 1
  31       27       29 2
  32       29       30 1
  33       30       31 1
  34       31       26 ar
  35       31       32 ar
  36       32        5 ar
  37        4       33 2
  38       33       34 1
  39       33       35 1
  40       35        2 1
  41       25       36 1
  42        1       37 1
  43        1       38 1
  44        1       39 1
  45        3       40 1
  46        6       41 1
  47       10       42 1
  48       15       43 1
  49       16       44 1
  50       18       45 1
  51       19       46 1
  52       20       47 1
  53       21       48 1
  54       28       49 1
  55       28       50 1
  56       28       51 1
  57       34       52 1
  58       34       53 1
  59       34       54 1

@<TRIPOS>MOLECULE

  54   59
SMALL
USER_CHARGES
@<TRIPOS>ATOM
   1 C1          -4.4890    -1.8392    -1.2618 C.3          1    LIG   0.0000
   2 C2          -3.1885    -1.5235    -0.5405 C.2          1    LIG   0.0000
   3 C3          -2.2340    -0.6552    -0.9735 C.2          1    LIG   0.0000
   4 C4          -1.2188    -0.6851     0.0051 C.2          1    LIG   0.0000
   5 C5           0.0182     0.0726    -0.0044 C.ar         1    LIG   0.0000
   6 C6           1.1969    -0.6617     0.0025 C.ar         1    LIG   0.0000
   7 C7           2.3942     0.0432    -0.0027 C.ar         1    LIG   0.0000
   8 C8           3.6143    -0.7418     0.0046 C.2          1    LIG   0.0000
   9 O9           4.1177    -1.0586     1.0468 O.2          1    LIG   0.0000
  10 N10          4.1917    -1.1216    -1.1784 N.am         1    LIG   0.0000
  11 C11          5.3694    -1.8793    -1.1713 C.2          1    LIG   0.0000
  12 N12          6.0070    -2.2822    -0.1001 N.2          1    LIG   0.0000
  13 C13          7.0871    -2.9801    -0.5480 C.2          1    LIG   0.0000
  14 C14          8.0829    -3.6188     0.2927 C.ar         1    LIG   0.0000
  15 C15          8.3559    -3.0653     1.5392 C.ar         1    LIG   0.0000
  16 C16          9.3040    -3.6570     2.3670 C.ar         1    LIG   0.0000
  17 C17          9.9668    -4.7999     1.9319 C.ar         1    LIG   0.0000
  18 C18         10.9155    -5.3880     2.7616 C.ar         1    LIG   0.0000
  19 C19         11.5759    -6.5300     2.3218 C.ar         1    LIG   0.0000
  20 C20         11.2953    -7.0760     1.0736 C.ar         1    LIG   0.0000
  21 C21         10.3420    -6.4679     0.2628 C.ar         1    LIG   0.0000
  22 C22          9.6667    -5.3252     0.6792 C.ar         1    LIG   0.0000
  23 N23          8.7440    -4.7245    -0.0926 N.ar         1    LIG   0.0000
  24 N24          7.0832    -2.9841    -1.8577 N.2          1    LIG   0.0000
  25 N25          6.0356    -2.3127    -2.2772 N.pl3        1    LIG   0.0000
  26 C26          2.3904     1.4386    -0.0134 C.ar         1    LIG   0.0000
  27 C27          3.3770     2.4487    -0.0225 C.2          1    LIG   0.0000
  28 C28          4.8860     2.2674    -0.0129 C.3          1    LIG   0.0000
  29 N29          2.7668     3.6048    -0.0364 N.2          1    LIG   0.0000
  30 O30          1.5173     3.4240    -0.0420 O.2          1    LIG   0.0000
  31 C31          1.2095     2.1307    -0.0281 C.ar         1    LIG   0.0000
  32 N32          0.0654     1.4185    -0.0199 N.ar         1    LIG   0.0000
  33 C33         -1.6363    -1.5685     0.9505 C.2          1    LIG   0.0000
  34 C34         -0.8754    -1.9385     2.2122 C.3          1    LIG   0.0000
  35 O35         -2.8013    -2.0471     0.5989 O.2          1    LIG   0.0000
  36 H            5.7760    -2.1502    -3.2291 H            1    LIG   0.0000
  37 H           -4.5397    -1.3062    -2.1063 H            1    LIG   0.0000
  38 H           -4.5205    -2.8144    -1.4807 H            1    LIG   0.0000
  39 H           -5.2623    -1.6046    -0.6727 H            1    LIG   0.0000
  40 H           -2.2494    -0.1095    -1.8113 H            1    LIG   0.0000
  41 H            1.1843    -1.6615     0.0109 H            1    LIG   0.0000
  42 H            3.7721    -0.8576    -2.0469 H            1    LIG   0.0000
  43 H            7.8715    -2.2436     1.8395 H            1    LIG   0.0000
  44 H            9.5069    -3.2654     3.2645 H            1    LIG   0.0000
  45 H           11.1193    -4.9964     3.6589 H            1    LIG   0.0000
  46 H           12.2597    -6.9633     2.9090 H            1    LIG   0.0000
  47 H           11.7738    -7.8970     0.7623 H            1    LIG   0.0000
  48 H           10.1388    -6.8591    -0.6348 H            1    LIG   0.0000
  49 H            5.1044     1.2916    -0.0028 H            1    LIG   0.0000
  50 H            5.2775     2.6882    -0.8312 H            1    LIG   0.0000
  51 H            5.2689     2.7031     0.8017 H            1    LIG   0.0000
  52 H           -0.0135    -1.4322     2.2423 H            1    LIG   0.0000
  53 H           -1.4264    -1.7065     3.0138 H            1    LIG   0.0000
  54 H           -0.6854    -2.9203     2.2110 H            1    LIG   0.0000
@<TRIPOS>BOND
   1        1        2 1
   2        2        3 2
   3        3        4 1
   4        4        5 1
   5        5        6 ar
   6        6        7 ar
   7        7        8 1
   8        8        9 2
   9        8       10 am
  10       10       11 1
  11       11       12 2
  12       12       13 1
  13       13       14 1
  14       14       15 ar
  15       15       16 ar
  16       16       17 ar
  17       17       18 ar
  18       18       19 ar
  19       19       20 ar
  20       20       21 ar
  21       21       22 ar
  22       22       17 ar
  23       22       23 ar
  24       23       14 ar
  25       13       24 2
  26       24       25 1
  27       25       11 1
  28        7       26 ar
  29       26       27 1
  30       27       28 1
  31       27       29 2
  32       29       30 1
  33       30       31 1
  34       31       26 ar
  35       31       32 ar
  36       32        5 ar
  37        4       33 2
  38       33       34 1
  39       33       35 1
  40       35        2 1
  41       25       36 1
  42        1       37 1
  43        1       38 1
  44        1       39 1
  45        3       40 1
  46        6       41 1
  47       10       42 1
  48       15       43 1
  49       16       44 1
  50       18       45 1
  51       19       46 1
  52       20       47 1
  53       21       48 1
  54       28       49 1
  55       28       50 1
  56       28       51 1
  57       34       52 1
  58       34       53 1
  59       34       54 1

@<TRIPOS>MOLECULE

  54   59
SMALL
USER_CHARGES
@<TRIPOS>ATOM
   1 C1          -4.4890    -1.8392    -1.2618 C.3          1    LIG   0.0000
   2 C2          -3.1885    -1.5235    -0.5405 C.2          1    LIG   0.0000
   3 C3          -2.2340    -0.6552    -0.9735 C.2          1    LIG   0.0000
   4 C4          -1.2188    -0.6851     0.0051 C.2          1    LIG   0.0000
   5 C5           0.0182     0.0726    -0.0044 C.ar         1    LIG   0.0000
   6 C6           1.1969    -0.6617     0.0025 C.ar         1    LIG   0.0000
   7 C7           2.3942     0.0432    -0.0027 C.ar         1    LIG   0.0000
   8 C8           3.6143    -0.7418     0.0046 C.2          1    LIG   0.0000
   9 O9           4.1177    -1.0586     1.0468 O.2          1    LIG   0.0000
  10 N10          4.1917    -1.1216    -1.1784 N.am         1    LIG   0.0000
  11 C11          5.3694    -1.8793    -1.1713 C.2          1    LIG   0.0000
  12 N12          6.0070    -2.2822    -0.1001 N.2          1    LIG   0.0000
  13 C13          7.0871    -2.9801    -0.5480 C.2          1    LIG   0.0000
  14 C14          8.0829    -3.6188     0.2927 C.ar         1    LIG   0.0000
  15 C15          8.7235    -4.7583    -0.1823 C.ar         1    LIG   0.0000
  16 C16          9.6835    -5.3904     0.6008 C.ar         1    LIG   0.0000
  17 C17          9.9890    -4.8685     1.8534 C.ar         1    LIG   0.0000
  18 C18         10.9483    -5.5042     2.6346 C.ar         1    LIG   0.0000
  19 C19         11.2497    -4.9790     3.8865 C.ar         1    LIG   0.0000
  20 C20         10.6036    -3.8387     4.3522 C.ar         1    LIG   0.0000
  21 C21          9.6475    -3.2221     3.5510 C.ar         1    LIG   0.0000
  22 C22          9.3279    -3.7268     2.2946 C.ar         1    LIG   0.0000
  23 N23          8.4056    -3.1441     1.5087 N.ar         1    LIG   0.0000
  24 N24          7.0832    -2.9841    -1.8577 N.2          1    LIG   0.0000
  25 N25          6.0356    -2.3127    -2.2772 N.pl3        1    LIG   0.0000
  26 C26          2.3904     1.4386    -0.0134 C.ar         1    LIG   0.0000
  27 C27          3.3770     2.4487    -0.0225 C.2          1    LIG   0.0000
  28 C28          4.8860     2.2674    -0.0129 C.3          1    LIG   0.0000
  29 N29          2.7668     3.6048    -0.0364 N.2          1    LIG   0.0000
  30 O30          1.5173     3.4240    -0.0420 O.2          1    LIG   0.0000
  31 C31          1.2095     2.1307    -0.0281 C.ar         1    LIG   0.0000
  32 N32          0.0654     1.4185    -0.0199 N.ar         1    LIG   0.0000
  33 C33         -1.6363    -1.5685     0.9505 C.2          1    LIG   0.0000
  34 C34         -0.8754    -1.9385     2.2122 C.3          1    LIG   0.0000
  35 O35         -2.8013    -2.0471     0.5989 O.2          1    LIG   0.0000
  36 H            5.7760    -2.1502    -3.2291 H            1    LIG   0.0000
  37 H           -4.5397    -1.3062    -2.1063 H            1    LIG   0.0000
  38 H           -4.5205    -2.8144    -1.4807 H            1    LIG   0.0000
  39 H           -5.2623    -1.6046    -0.6727 H            1    LIG   0.0000
  40 H           -2.2494    -0.1095    -1.8113 H            1    LIG   0.0000
  41 H            1.1843    -1.6615     0.0109 H            1    LIG   0.0000
  42 H            3.7721    -0.8576    -2.0469 H            1    LIG   0.0000
  43 H            8.4943    -5.1224    -1.0851 H            1    LIG   0.0000
  44 H           10.1486    -6.2104     0.2673 H            1    LIG   0.0000
  45 H           11.4132    -6.3246     2.3018 H            1    LIG   0.0000
  46 H           11.9381    -5.4258     4.4578 H            1    LIG   0.0000
  47 H           10.8239    -3.4658     5.2535 H            1    LIG   0.0000
  48 H            9.1821    -2.4021     3.8841 H            1    LIG   0.0000
  49 H            5.1044     1.2916    -0.0028 H            1    LIG   0.0000
  50 H            5.2775     2.6882    -0.8312 H            1    LIG   0.0000
  51 H            5.2689     2.7031     0.8017 H            1    LIG   0.0000
  52 H           -0.0135    -1.4322     2.2423 H            1    LIG   0.0000
  53 H           -1.4264    -1.7065     3.0138 H            1    LIG   0.0000
  54 H           -0.6854    -2.9203     2.2110 H            1    LIG   0.0000
@<TRIPOS>BOND
   1        1        2 1
   2        2        3 2
   3        3        4 1
   4        4        5 1
   5        5        6 ar
   6        6        7 ar
   7        7        8 1
   8        8        9 2
   9        8       10 am
  10       10       11 1
  11       11       12 2
  12       12       13 1
  13       13       14 1
  14       14       15 ar
  15       15       16 ar
  16       16       17 ar
  17       17       18 ar
  18       18       19 ar
  19       19       20 ar
  20       20       21 ar
  21       21       22 ar
  22       22       17 ar
  23       22       23 ar
  24       23       14 ar
  25       13       24 2
  26       24       25 1
  27       25       11 1
  28        7       26 ar
  29       26       27 1
  30       27       28 1
  31       27       29 2
  32       29       30 1
  33       30       31 1
  34       31       26 ar
  35       31       32 ar
  36       32        5 ar
  37        4       33 2
  38       33       34 1
  39       33       35 1
  40       35        2 1
  41       25       36 1
  42        1       37 1
  43        1       38 1
  44        1       39 1
  45        3       40 1
  46        6       41 1
  47       10       42 1
  48       15       43 1
  49       16       44 1
  50       18       45 1
  51       19       46 1
  52       20       47 1
  53       21       48 1
  54       28       49 1
  55       28       50 1
  56       28       51 1
  57       34       52 1
  58       34       53 1
  59       34       54 1

@<TRIPOS>MOLECULE

  54   59
SMALL
USER_CHARGES
@<TRIPOS>ATOM
   1 C1          -3.3318    -3.7124     0.0446 C.3          1    LIG   0.0000
   2 C2          -2.6865    -2.3359     0.0267 C.2          1    LIG   0.0000
   3 C3          -1.3481    -2.0893     0.0213 C.2          1    LIG   0.0000
   4 C4          -1.2188    -0.6851     0.0051 C.2          1    LIG   0.0000
   5 C5           0.0182     0.0726    -0.0044 C.ar         1    LIG   0.0000
   6 C6           1.1969    -0.6617     0.0025 C.ar         1    LIG   0.0000
   7 C7           2.3942     0.0432    -0.0027 C.ar         1    LIG   0.0000
   8 C8           3.6143    -0.7418     0.0046 C.2          1    LIG   0.0000
   9 O9           4.1177    -1.0586     1.0468 O.2          1    LIG   0.0000
  10 N10          4.1917    -1.1216    -1.1784 N.am         1    LIG   0.0000
  11 C11          5.3694    -1.8793    -1.1713 C.2          1    LIG   0.0000
  12 N12          6.0070    -2.2822    -0.1001 N.2          1    LIG   0.0000
  13 C13          7.0871    -2.9801    -0.5480 C.2          1    LIG   0.0000
  14 C14          8.0829    -3.6188     0.2927 C.ar         1    LIG   0.0000
  15 C15          9.2005    -2.8849     0.6758 C.ar         1    LIG   0.0000
  16 C16         10.1703    -3.4705     1.4827 C.ar         1    LIG   0.0000
  17 C17         10.0045    -4.7882     1.8961 C.ar         1    LIG   0.0000
  18 C18         10.9771    -5.3711     2.7016 C.ar         1    LIG   0.0000
  19 C19         10.8072    -6.6890     3.1116 C.ar         1    LIG   0.0000
  20 C20          9.6856    -7.4142     2.7233 C.ar         1    LIG   0.0000
  21 C21          8.7276    -6.8076     1.9168 C.ar         1    LIG   0.0000
  22 C22          8.8732    -5.4905     1.4934 C.ar         1    LIG   0.0000
  23 N23          7.9578    -4.8900     0.7128 N.ar         1    LIG   0.0000
  24 N24          7.0832    -2.9841    -1.8577 N.2          1    LIG   0.0000
  25 N25          6.0356    -2.3127    -2.2772 N.pl3        1    LIG   0.0000
  26 C26          2.3904     1.4386    -0.0134 C.ar         1    LIG   0.0000
  27 C27          3.3770     2.4487    -0.0225 C.2          1    LIG   0.0000
  28 C28          4.8860     2.2674    -0.0129 C.3          1    LIG   0.0000
  29 N29          2.7668     3.6048    -0.0364 N.2          1    LIG   0.0000
  30 O30          1.5173     3.4240    -0.0420 O.2          1    LIG   0.0000
  31 C31          1.2095     2.1307    -0.0281 C.ar         1    LIG   0.0000
  32 N32          0.0654     1.4185    -0.0199 N.ar         1    LIG   0.0000
  33 C33         -2.4861    -0.1926     0.0039 C.2          1    LIG   0.0000
  34 C34         -2.8629     1.2789    -0.0139 C.3          1    LIG   0.0000
  35 O35         -3.3295    -1.1918     0.0184 O.2          1    LIG   0.0000
  36 H            5.7760    -2.1502    -3.2291 H            1    LIG   0.0000
  37 H           -2.6197    -4.4144     0.0480 H            1    LIG   0.0000
  38 H           -3.8957    -3.8056     0.8652 H            1    LIG   0.0000
  39 H           -3.9047    -3.8226    -0.7676 H            1    LIG   0.0000
  40 H           -0.6098    -2.7637     0.0275 H            1    LIG   0.0000
  41 H            1.1843    -1.6615     0.0109 H            1    LIG   0.0000
  42 H            3.7721    -0.8576    -2.0469 H            1    LIG   0.0000
  43 H            9.3066    -1.9382     0.3717 H            1    LIG   0.0000
  44 H           10.9772    -2.9502     1.7625 H            1    LIG   0.0000
  45 H           11.7845    -4.8515     2.9810 H            1    LIG   0.0000
  46 H           11.4985    -7.1198     3.6917 H            1    LIG   0.0000
  47 H            9.5690    -8.3618     3.0206 H            1    LIG   0.0000
  48 H            7.9205    -7.3274     1.6368 H            1    LIG   0.0000
  49 H            5.1044     1.2916    -0.0028 H            1    LIG   0.0000
  50 H            5.2775     2.6882    -0.8312 H            1    LIG   0.0000
  51 H            5.2689     2.7031     0.8017 H            1    LIG   0.0000
  52 H           -2.0322     1.8356    -0.0227 H            1    LIG   0.0000
  53 H           -3.4040     1.4746    -0.8317 H            1    LIG   0.0000
  54 H           -3.4005     1.4953     0.8011 H            1    LIG   0.0000
@<TRIPOS>BOND
   1        1        2 1
   2        2        3 2
   3        3        4 1
   4        4        5 1
   5        5        6 ar
   6        6        7 ar
   7        7        8 1
   8        8        9 2
   9        8       10 am
  10       10       11 1
  11       11       12 2
  12       12       13 1
  13       13       14 1
  14       14       15 ar
  15       15       16 ar
  16       16       17 ar
  17       17       18 ar
  18       18       19 ar
  19       19       20 ar
  20       20       21 ar
  21       21       22 ar
  22       22       17 ar
  23       22       23 ar
  24       23       14 ar
  25       13       24 2
  26       24       25 1
  27       25       11 1
  28        7       26 ar
  29       26       27 1
  30       27       28 1
  31       27       29 2
  32       29       30 1
  33       30       31 1
  34       31       26 ar
  35       31       32 ar
  36       32        5 ar
  37        4       33 2
  38       33       34 1
  39       33       35 1
  40       35        2 1
  41       25       36 1
  42        1       37 1
  43        1       38 1
  44        1       39 1
  45        3       40 1
  46        6       41 1
  47       10       42 1
  48       15       43 1
  49       16       44 1
  50       18       45 1
  51       19       46 1
  52       20       47 1
  53       21       48 1
  54       28       49 1
  55       28       50 1
  56       28       51 1
  57       34       52 1
  58       34       53 1
  59       34       54 1

@<TRIPOS>MOLECULE

  54   59
SMALL
USER_CHARGES
@<TRIPOS>ATOM
   1 C1          -3.3318    -3.7124     0.0446 C.3          1    LIG   0.0000
   2 C2          -2.6865    -2.3359     0.0267 C.2          1    LIG   0.0000
   3 C3          -1.3481    -2.0893     0.0213 C.2          1    LIG   0.0000
   4 C4          -1.2188    -0.6851     0.0051 C.2          1    LIG   0.0000
   5 C5           0.0182     0.0726    -0.0044 C.ar         1    LIG   0.0000
   6 C6           1.1969    -0.6617     0.0025 C.ar         1    LIG   0.0000
   7 C7           2.3942     0.0432    -0.0027 C.ar         1    LIG   0.0000
   8 C8           3.6143    -0.7418     0.0046 C.2          1    LIG   0.0000
   9 O9           4.1177    -1.0586     1.0468 O.2          1    LIG   0.0000
  10 N10          4.1917    -1.1216    -1.1784 N.am         1    LIG   0.0000
  11 C11          5.3694    -1.8793    -1.1713 C.2          1    LIG   0.0000
  12 N12          6.0070    -2.2822    -0.1001 N.2          1    LIG   0.0000
  13 C13          7.0871    -2.9801    -0.5480 C.2          1    LIG   0.0000
  14 C14          8.0829    -3.6188     0.2927 C.ar         1    LIG   0.0000
  15 C15          7.8789    -4.9387     0.6810 C.ar         1    LIG   0.0000
  16 C16          8.8173    -5.5770     1.4850 C.ar         1    LIG   0.0000
  17 C17          9.9513    -4.8803     1.8892 C.ar         1    LIG   0.0000
  18 C18         10.8868    -5.5211     2.6946 C.ar         1    LIG   0.0000
  19 C19         12.0185    -4.8201     3.0966 C.ar         1    LIG   0.0000
  20 C20         12.2132    -3.5004     2.7025 C.ar         1    LIG   0.0000
  21 C21         11.2619    -2.8824     1.8969 C.ar         1    LIG   0.0000
  22 C22         10.1214    -3.5614     1.4804 C.ar         1    LIG   0.0000
  23 N23          9.1918    -2.9786     0.7033 N.ar         1    LIG   0.0000
  24 N24          7.0832    -2.9841    -1.8577 N.2          1    LIG   0.0000
  25 N25          6.0356    -2.3127    -2.2772 N.pl3        1    LIG   0.0000
  26 C26          2.3904     1.4386    -0.0134 C.ar         1    LIG   0.0000
  27 C27          3.3770     2.4487    -0.0225 C.2          1    LIG   0.0000
  28 C28          4.8860     2.2674    -0.0129 C.3          1    LIG   0.0000
  29 N29          2.7668     3.6048    -0.0364 N.2          1    LIG   0.0000
  30 O30          1.5173     3.4240    -0.0420 O.2          1    LIG   0.0000
  31 C31          1.2095     2.1307    -0.0281 C.ar         1    LIG   0.0000
  32 N32          0.0654     1.4185    -0.0199 N.ar         1    LIG   0.0000
  33 C33         -2.4861    -0.1926     0.0039 C.2          1    LIG   0.0000
  34 C34         -2.8629     1.2789    -0.0139 C.3          1    LIG   0.0000
  35 O35         -3.3295    -1.1918     0.0184 O.2          1    LIG   0.0000
  36 H            5.7760    -2.1502    -3.2291 H            1    LIG   0.0000
  37 H           -2.6197    -4.4144     0.0480 H            1    LIG   0.0000
  38 H           -3.8957    -3.8056     0.8652 H            1    LIG   0.0000
  39 H           -3.9047    -3.8226    -0.7676 H            1    LIG   0.0000
  40 H           -0.6098    -2.7637     0.0275 H            1    LIG   0.0000
  41 H            1.1843    -1.6615     0.0109 H            1    LIG   0.0000
  42 H            3.7721    -0.8576    -2.0469 H            1    LIG   0.0000
  43 H            7.0593    -5.4278     0.3827 H            1    LIG   0.0000
  44 H            8.6783    -6.5256     1.7693 H            1    LIG   0.0000
  45 H           10.7479    -6.4695     2.9797 H            1    LIG   0.0000
  46 H           12.6993    -5.2694     3.6751 H            1    LIG   0.0000
  47 H           13.0287    -3.0010     2.9952 H            1    LIG   0.0000
  48 H           11.4004    -1.9338     1.6125 H            1    LIG   0.0000
  49 H            5.1044     1.2916    -0.0028 H            1    LIG   0.0000
  50 H            5.2775     2.6882    -0.8312 H            1    LIG   0.0000
  51 H            5.2689     2.7031     0.8017 H            1    LIG   0.0000
  52 H           -2.0322     1.8356    -0.0227 H            1    LIG   0.0000
  53 H           -3.4040     1.4746    -0.8317 H            1    LIG   0.0000
  54 H           -3.4005     1.4953     0.8011 H            1    LIG   0.0000
@<TRIPOS>BOND
   1        1        2 1
   2        2        3 2
   3        3        4 1
   4        4        5 1
   5        5        6 ar
   6        6        7 ar
   7        7        8 1
   8        8        9 2
   9        8       10 am
  10       10       11 1
  11       11       12 2
  12       12       13 1
  13       13       14 1
  14       14       15 ar
  15       15       16 ar
  16       16       17 ar
  17       17       18 ar
  18       18       19 ar
  19       19       20 ar
  20       20       21 ar
  21       21       22 ar
  22       22       17 ar
  23       22       23 ar
  24       23       14 ar
  25       13       24 2
  26       24       25 1
  27       25       11 1
  28        7       26 ar
  29       26       27 1
  30       27       28 1
  31       27       29 2
  32       29       30 1
  33       30       31 1
  34       31       26 ar
  35       31       32 ar
  36       32        5 ar
  37        4       33 2
  38       33       34 1
  39       33       35 1
  40       35        2 1
  41       25       36 1
  42        1       37 1
  43        1       38 1
  44        1       39 1
  45        3       40 1
  46        6       41 1
  47       10       42 1
  48       15       43 1
  49       16       44 1
  50       18       45 1
  51       19       46 1
  52       20       47 1
  53       21       48 1
  54       28       49 1
  55       28       50 1
  56       28       51 1
  57       34       52 1
  58       34       53 1
  59       34       54 1

