@<TRIPOS>MOLECULE
*****
 54 59 0 0 0
SMALL
USER_CHARGES

@<TRIPOS>ATOM
      1 C1         -3.3318   -3.7124    0.0446 C.3     1  LIG1        0.0000
      2 C2         -2.6865   -2.3359    0.0267 C.2     1  LIG1        0.0000
      3 C3         -1.3481   -2.0893    0.0213 C.2     1  LIG1        0.0000
      4 C4         -1.2188   -0.6851    0.0051 C.2     1  LIG1        0.0000
      5 C5          0.0182    0.0726   -0.0044 C.3     1  LIG1        0.0000
      6 C6          1.1969   -0.6617    0.0025 C.3     1  LIG1        0.0000
      7 C7          2.3942    0.0432   -0.0027 C.3     1  LIG1        0.0000
      8 C8          3.6143   -0.7418    0.0046 C.2     1  LIG1        0.0000
      9 O9          4.1200   -1.0744   -1.0316 O.2     1  LIG1        0.0000
     10 N10         4.1891   -1.1034    1.1945 N.am    1  LIG1        0.0000
     11 C11         5.3668   -1.8612    1.2016 C.2     1  LIG1        0.0000
     12 N12         6.0044   -2.2641    2.2727 N.2     1  LIG1        0.0000
     13 C13         7.0844   -2.9620    1.8248 C.2     1  LIG1        0.0000
     14 C14         8.0803   -3.6007    2.6655 C.3     1  LIG1        0.0000
     15 C15         9.1308   -4.2783    2.0559 C.3     1  LIG1        0.0000
     16 C16        10.1008   -4.8983    2.8364 C.3     1  LIG1        0.0000
     17 C17        10.0035   -4.8291    4.2222 C.3     1  LIG1        0.0000
     18 C18        10.9743   -5.4517    4.9996 C.3     1  LIG1        0.0000
     19 C19        10.8722   -5.3804    6.3846 C.3     1  LIG1        0.0000
     20 C20         9.8178   -4.7000    6.9846 C.3     1  LIG1        0.0000
     21 C21         8.8596   -4.0860    6.1839 C.3     1  LIG1        0.0000
     22 C22         8.9388   -4.1419    4.7962 C.3     1  LIG1        0.0000
     23 N23         8.0207   -3.5555    4.0081 N.pl3   1  LIG1        0.0000
     24 N24         7.0805   -2.9660    0.5151 N.2     1  LIG1        0.0000
     25 N25         6.0330   -2.2946    0.0956 N.pl3   1  LIG1        0.0000
     26 C26         2.3904    1.4386   -0.0134 C.3     1  LIG1        0.0000
     27 C27         3.3770    2.4487   -0.0225 C.2     1  LIG1        0.0000
     28 C28         4.8860    2.2674   -0.0129 C.3     1  LIG1        0.0000
     29 N29         2.7668    3.6048   -0.0364 N.2     1  LIG1        0.0000
     30 O30         1.5173    3.4240   -0.0420 O.2     1  LIG1        0.0000
     31 C31         1.2095    2.1307   -0.0281 C.3     1  LIG1        0.0000
     32 N32         0.0654    1.4185   -0.0199 N.pl3   1  LIG1        0.0000
     33 C33        -2.4861   -0.1926    0.0039 C.2     1  LIG1        0.0000
     34 C34        -2.8629    1.2789   -0.0139 C.3     1  LIG1        0.0000
     35 O35        -3.3295   -1.1918    0.0184 O.2     1  LIG1        0.0000
     36 H           5.7734   -2.1321   -0.8563 H       1  LIG1        0.0000
     37 H          -2.6197   -4.4144    0.0480 H       1  LIG1        0.0000
     38 H          -3.8957   -3.8056    0.8652 H       1  LIG1        0.0000
     39 H          -3.9047   -3.8226   -0.7676 H       1  LIG1        0.0000
     40 H          -0.6098   -2.7637    0.0275 H       1  LIG1        0.0000
     41 H           1.1843   -1.6615    0.0109 H       1  LIG1        0.0000
     42 H           3.7676   -0.8263    2.0579 H       1  LIG1        0.0000
     43 H           9.1887   -4.3196    1.0584 H       1  LIG1        0.0000
     44 H          10.8592   -5.3880    2.4063 H       1  LIG1        0.0000
     45 H          11.7326   -5.9422    4.5701 H       1  LIG1        0.0000
     46 H          11.5640   -5.8229    6.9552 H       1  LIG1        0.0000
     47 H           9.7491   -4.6525    7.9811 H       1  LIG1        0.0000
     48 H           8.1010   -3.5962    6.6135 H       1  LIG1        0.0000
     49 H           5.1044    1.2916   -0.0028 H       1  LIG1        0.0000
     50 H           5.2775    2.6882   -0.8312 H       1  LIG1        0.0000
     51 H           5.2689    2.7031    0.8017 H       1  LIG1        0.0000
     52 H          -2.0322    1.8356   -0.0227 H       1  LIG1        0.0000
     53 H          -3.4040    1.4746   -0.8317 H       1  LIG1        0.0000
     54 H          -3.4005    1.4953    0.8011 H       1  LIG1        0.0000
@<TRIPOS>BOND
     1     1     2    1
     2     2     3    2
     3     3     4    1
     4     4     5    1
     5     5     6   ar
     6     6     7   ar
     7     7     8    1
     8     8     9    2
     9     8    10   am
    10    10    11    1
    11    11    12    2
    12    12    13    1
    13    13    14    1
    14    14    15   ar
    15    15    16   ar
    16    16    17   ar
    17    17    18   ar
    18    18    19   ar
    19    19    20   ar
    20    20    21   ar
    21    21    22   ar
    22    22    17   ar
    23    22    23   ar
    24    23    14   ar
    25    13    24    2
    26    24    25    1
    27    25    11    1
    28     7    26   ar
    29    26    27    1
    30    27    28    1
    31    27    29    2
    32    29    30    1
    33    30    31    1
    34    31    26   ar
    35    31    32   ar
    36    32     5   ar
    37     4    33    2
    38    33    34    1
    39    33    35    1
    40    35     2    1
    41    25    36    1
    42     1    37    1
    43     1    38    1
    44     1    39    1
    45     3    40    1
    46     6    41    1
    47    10    42    1
    48    15    43    1
    49    16    44    1
    50    18    45    1
    51    19    46    1
    52    20    47    1
    53    21    48    1
    54    28    49    1
    55    28    50    1
    56    28    51    1
    57    34    52    1
    58    34    53    1
    59    34    54    1
