@<TRIPOS>MOLECULE
*****
 54 59 0 0 0
SMALL
USER_CHARGES

@<TRIPOS>ATOM
      1 C1         -4.4890   -1.8392   -1.2618 C.3     1  LIG1        0.0000
      2 C2         -3.1885   -1.5235   -0.5405 C.2     1  LIG1        0.0000
      3 C3         -2.2340   -0.6552   -0.9735 C.2     1  LIG1        0.0000
      4 C4         -1.2188   -0.6851    0.0051 C.2     1  LIG1        0.0000
      5 C5          0.0182    0.0726   -0.0044 C.3     1  LIG1        0.0000
      6 C6          1.1969   -0.6617    0.0025 C.3     1  LIG1        0.0000
      7 C7          2.3942    0.0432   -0.0027 C.3     1  LIG1        0.0000
      8 C8          3.6143   -0.7418    0.0046 C.2     1  LIG1        0.0000
      9 O9          4.1177   -1.0586    1.0468 O.2     1  LIG1        0.0000
     10 N10         4.1917   -1.1216   -1.1784 N.am    1  LIG1        0.0000
     11 C11         5.3694   -1.8793   -1.1713 C.2     1  LIG1        0.0000
     12 N12         6.0070   -2.2822   -0.1001 N.2     1  LIG1        0.0000
     13 C13         7.0871   -2.9801   -0.5480 C.2     1  LIG1        0.0000
     14 C14         8.0829   -3.6188    0.2927 C.3     1  LIG1        0.0000
     15 C15         8.3559   -3.0653    1.5392 C.3     1  LIG1        0.0000
     16 C16         9.3040   -3.6570    2.3670 C.3     1  LIG1        0.0000
     17 C17         9.9668   -4.7999    1.9319 C.3     1  LIG1        0.0000
     18 C18        10.9155   -5.3880    2.7616 C.3     1  LIG1        0.0000
     19 C19        11.5759   -6.5300    2.3218 C.3     1  LIG1        0.0000
     20 C20        11.2953   -7.0760    1.0736 C.3     1  LIG1        0.0000
     21 C21        10.3420   -6.4679    0.2628 C.3     1  LIG1        0.0000
     22 C22         9.6667   -5.3252    0.6792 C.3     1  LIG1        0.0000
     23 N23         8.7440   -4.7245   -0.0926 N.pl3   1  LIG1        0.0000
     24 N24         7.0832   -2.9841   -1.8577 N.2     1  LIG1        0.0000
     25 N25         6.0356   -2.3127   -2.2772 N.pl3   1  LIG1        0.0000
     26 C26         2.3904    1.4386   -0.0134 C.3     1  LIG1        0.0000
     27 C27         3.3770    2.4487   -0.0225 C.2     1  LIG1        0.0000
     28 C28         4.8860    2.2674   -0.0129 C.3     1  LIG1        0.0000
     29 N29         2.7668    3.6048   -0.0364 N.2     1  LIG1        0.0000
     30 O30         1.5173    3.4240   -0.0420 O.2     1  LIG1        0.0000
     31 C31         1.2095    2.1307   -0.0281 C.3     1  LIG1        0.0000
     32 N32         0.0654    1.4185   -0.0199 N.pl3   1  LIG1        0.0000
     33 C33        -1.6363   -1.5685    0.9505 C.2     1  LIG1        0.0000
     34 C34        -0.8754   -1.9385    2.2122 C.3     1  LIG1        0.0000
     35 O35        -2.8013   -2.0471    0.5989 O.2     1  LIG1        0.0000
     36 H           5.7760   -2.1502   -3.2291 H       1  LIG1        0.0000
     37 H          -4.5397   -1.3062   -2.1063 H       1  LIG1        0.0000
     38 H          -4.5205   -2.8144   -1.4807 H       1  LIG1        0.0000
     39 H          -5.2623   -1.6046   -0.6727 H       1  LIG1        0.0000
     40 H          -2.2494   -0.1095   -1.8113 H       1  LIG1        0.0000
     41 H           1.1843   -1.6615    0.0109 H       1  LIG1        0.0000
     42 H           3.7721   -0.8576   -2.0469 H       1  LIG1        0.0000
     43 H           7.8715   -2.2436    1.8395 H       1  LIG1        0.0000
     44 H           9.5069   -3.2654    3.2645 H       1  LIG1        0.0000
     45 H          11.1193   -4.9964    3.6589 H       1  LIG1        0.0000
     46 H          12.2597   -6.9633    2.9090 H       1  LIG1        0.0000
     47 H          11.7738   -7.8970    0.7623 H       1  LIG1        0.0000
     48 H          10.1388   -6.8591   -0.6348 H       1  LIG1        0.0000
     49 H           5.1044    1.2916   -0.0028 H       1  LIG1        0.0000
     50 H           5.2775    2.6882   -0.8312 H       1  LIG1        0.0000
     51 H           5.2689    2.7031    0.8017 H       1  LIG1        0.0000
     52 H          -0.0135   -1.4322    2.2423 H       1  LIG1        0.0000
     53 H          -1.4264   -1.7065    3.0138 H       1  LIG1        0.0000
     54 H          -0.6854   -2.9203    2.2110 H       1  LIG1        0.0000
@<TRIPOS>BOND
     1     1     2    1
     2     2     3    2
     3     3     4    1
     4     4     5    1
     5     5     6   ar
     6     6     7   ar
     7     7     8    1
     8     8     9    2
     9     8    10   am
    10    10    11    1
    11    11    12    2
    12    12    13    1
    13    13    14    1
    14    14    15   ar
    15    15    16   ar
    16    16    17   ar
    17    17    18   ar
    18    18    19   ar
    19    19    20   ar
    20    20    21   ar
    21    21    22   ar
    22    22    17   ar
    23    22    23   ar
    24    23    14   ar
    25    13    24    2
    26    24    25    1
    27    25    11    1
    28     7    26   ar
    29    26    27    1
    30    27    28    1
    31    27    29    2
    32    29    30    1
    33    30    31    1
    34    31    26   ar
    35    31    32   ar
    36    32     5   ar
    37     4    33    2
    38    33    34    1
    39    33    35    1
    40    35     2    1
    41    25    36    1
    42     1    37    1
    43     1    38    1
    44     1    39    1
    45     3    40    1
    46     6    41    1
    47    10    42    1
    48    15    43    1
    49    16    44    1
    50    18    45    1
    51    19    46    1
    52    20    47    1
    53    21    48    1
    54    28    49    1
    55    28    50    1
    56    28    51    1
    57    34    52    1
    58    34    53    1
    59    34    54    1
