@<TRIPOS>MOLECULE
*****
 54 59 0 0 0
SMALL
USER_CHARGES

@<TRIPOS>ATOM
      1 C1         -4.4908   -1.8045    1.2982 C.3     1  LIG1        0.0000
      2 C2         -3.1895   -1.5079    0.5701 C.2     1  LIG1        0.0000
      3 C3         -2.2329   -0.6327    0.9838 C.2     1  LIG1        0.0000
      4 C4         -1.2188   -0.6851    0.0051 C.2     1  LIG1        0.0000
      5 C5          0.0182    0.0726   -0.0044 C.3     1  LIG1        0.0000
      6 C6          1.1969   -0.6617    0.0025 C.3     1  LIG1        0.0000
      7 C7          2.3942    0.0432   -0.0027 C.3     1  LIG1        0.0000
      8 C8          3.6143   -0.7418    0.0046 C.2     1  LIG1        0.0000
      9 O9          4.1177   -1.0586    1.0468 O.2     1  LIG1        0.0000
     10 N10         4.1917   -1.1216   -1.1784 N.am    1  LIG1        0.0000
     11 C11         5.3694   -1.8793   -1.1713 C.2     1  LIG1        0.0000
     12 N12         6.0070   -2.2822   -0.1001 N.2     1  LIG1        0.0000
     13 C13         7.0871   -2.9801   -0.5480 C.2     1  LIG1        0.0000
     14 C14         8.0829   -3.6188    0.2927 C.3     1  LIG1        0.0000
     15 C15         7.9460   -3.5272    1.6738 C.3     1  LIG1        0.0000
     16 C16         8.8841   -4.1310    2.5043 C.3     1  LIG1        0.0000
     17 C17         9.9497   -4.8212    1.9359 C.3     1  LIG1        0.0000
     18 C18        10.8869   -5.4223    2.7694 C.3     1  LIG1        0.0000
     19 C19        11.9508   -6.1105    2.1964 C.3     1  LIG1        0.0000
     20 C20        12.0785   -6.1966    0.8141 C.3     1  LIG1        0.0000
     21 C21        11.1273   -5.5859    0.0027 C.3     1  LIG1        0.0000
     22 C22        10.0532   -4.8920    0.5504 C.3     1  LIG1        0.0000
     23 N23         9.1263   -4.2950   -0.2192 N.pl3   1  LIG1        0.0000
     24 N24         7.0832   -2.9841   -1.8577 N.2     1  LIG1        0.0000
     25 N25         6.0356   -2.3127   -2.2772 N.pl3   1  LIG1        0.0000
     26 C26         2.3904    1.4386   -0.0134 C.3     1  LIG1        0.0000
     27 C27         3.3770    2.4487   -0.0225 C.2     1  LIG1        0.0000
     28 C28         4.8860    2.2674   -0.0129 C.3     1  LIG1        0.0000
     29 N29         2.7668    3.6048   -0.0364 N.2     1  LIG1        0.0000
     30 O30         1.5173    3.4240   -0.0420 O.2     1  LIG1        0.0000
     31 C31         1.2095    2.1307   -0.0281 C.3     1  LIG1        0.0000
     32 N32         0.0654    1.4185   -0.0199 N.pl3   1  LIG1        0.0000
     33 C33        -1.6408   -1.5844   -0.9232 C.2     1  LIG1        0.0000
     34 C34        -0.8804   -1.9849   -2.1759 C.3     1  LIG1        0.0000
     35 O35        -2.8076   -2.0511   -0.5619 O.2     1  LIG1        0.0000
     36 H           5.7760   -2.1502   -3.2291 H       1  LIG1        0.0000
     37 H          -4.5366   -1.2585    2.1347 H       1  LIG1        0.0000
     38 H          -5.2636   -1.5740    0.7069 H       1  LIG1        0.0000
     39 H          -4.5281   -2.7761    1.5319 H       1  LIG1        0.0000
     40 H          -2.2463   -0.0694    1.8099 H       1  LIG1        0.0000
     41 H           1.1843   -1.6615    0.0109 H       1  LIG1        0.0000
     42 H           3.7721   -0.8576   -2.0469 H       1  LIG1        0.0000
     43 H           7.1746   -3.0283    2.0688 H       1  LIG1        0.0000
     44 H           8.7936   -4.0697    3.4983 H       1  LIG1        0.0000
     45 H          10.7973   -5.3607    3.7635 H       1  LIG1        0.0000
     46 H          12.6312   -6.5481    2.7844 H       1  LIG1        0.0000
     47 H          12.8460   -6.6922    0.4075 H       1  LIG1        0.0000
     48 H          11.2173   -5.6469   -0.9914 H       1  LIG1        0.0000
     49 H           5.1044    1.2916   -0.0028 H       1  LIG1        0.0000
     50 H           5.2775    2.6882   -0.8312 H       1  LIG1        0.0000
     51 H           5.2689    2.7031    0.8017 H       1  LIG1        0.0000
     52 H          -0.0168   -1.4823   -2.2166 H       1  LIG1        0.0000
     53 H          -0.6937   -2.9671   -2.1527 H       1  LIG1        0.0000
     54 H          -1.4301   -1.7690   -2.9829 H       1  LIG1        0.0000
@<TRIPOS>BOND
     1     1     2    1
     2     2     3    2
     3     3     4    1
     4     4     5    1
     5     5     6   ar
     6     6     7   ar
     7     7     8    1
     8     8     9    2
     9     8    10   am
    10    10    11    1
    11    11    12    2
    12    12    13    1
    13    13    14    1
    14    14    15   ar
    15    15    16   ar
    16    16    17   ar
    17    17    18   ar
    18    18    19   ar
    19    19    20   ar
    20    20    21   ar
    21    21    22   ar
    22    22    17   ar
    23    22    23   ar
    24    23    14   ar
    25    13    24    2
    26    24    25    1
    27    25    11    1
    28     7    26   ar
    29    26    27    1
    30    27    28    1
    31    27    29    2
    32    29    30    1
    33    30    31    1
    34    31    26   ar
    35    31    32   ar
    36    32     5   ar
    37     4    33    2
    38    33    34    1
    39    33    35    1
    40    35     2    1
    41    25    36    1
    42     1    37    1
    43     1    38    1
    44     1    39    1
    45     3    40    1
    46     6    41    1
    47    10    42    1
    48    15    43    1
    49    16    44    1
    50    18    45    1
    51    19    46    1
    52    20    47    1
    53    21    48    1
    54    28    49    1
    55    28    50    1
    56    28    51    1
    57    34    52    1
    58    34    53    1
    59    34    54    1
