@<TRIPOS>MOLECULE
*****
 54 59 0 0 0
SMALL
USER_CHARGES

@<TRIPOS>ATOM
      1 C1         -3.3318   -3.7124    0.0446 C.3     1  LIG1        0.0000
      2 C2         -2.6865   -2.3359    0.0267 C.2     1  LIG1        0.0000
      3 C3         -1.3481   -2.0893    0.0213 C.2     1  LIG1        0.0000
      4 C4         -1.2188   -0.6851    0.0051 C.2     1  LIG1        0.0000
      5 C5          0.0182    0.0726   -0.0044 C.3     1  LIG1        0.0000
      6 C6          1.1969   -0.6617    0.0025 C.3     1  LIG1        0.0000
      7 C7          2.3942    0.0432   -0.0027 C.3     1  LIG1        0.0000
      8 C8          3.6143   -0.7418    0.0046 C.2     1  LIG1        0.0000
      9 O9          4.1177   -1.0586    1.0468 O.2     1  LIG1        0.0000
     10 N10         4.1917   -1.1216   -1.1784 N.am    1  LIG1        0.0000
     11 C11         5.3694   -1.8793   -1.1713 C.2     1  LIG1        0.0000
     12 N12         6.0093   -2.2985   -2.2348 N.2     1  LIG1        0.0000
     13 C13         7.0882   -2.9898   -1.7738 C.2     1  LIG1        0.0000
     14 C14         8.0893   -3.6359   -2.6026 C.3     1  LIG1        0.0000
     15 C15         9.2093   -2.9054   -2.9854 C.3     1  LIG1        0.0000
     16 C16        10.1858   -3.4993   -3.7779 C.3     1  LIG1        0.0000
     17 C17        10.0251   -4.8223   -4.1762 C.3     1  LIG1        0.0000
     18 C18        11.0028   -5.4124   -4.9701 C.3     1  LIG1        0.0000
     19 C19        10.8372   -6.7351   -5.3663 C.3     1  LIG1        0.0000
     20 C20         9.7136   -7.4571   -4.9778 C.3     1  LIG1        0.0000
     21 C21         8.7501   -6.8430   -4.1837 C.3     1  LIG1        0.0000
     22 C22         8.8919   -5.5214   -3.7732 C.3     1  LIG1        0.0000
     23 N23         7.9697   -4.9127   -3.0072 N.pl3   1  LIG1        0.0000
     24 N24         7.0791   -2.9774   -0.4643 N.2     1  LIG1        0.0000
     25 N25         6.0304   -2.3000   -0.0574 N.pl3   1  LIG1        0.0000
     26 C26         2.3904    1.4386   -0.0134 C.3     1  LIG1        0.0000
     27 C27         3.3770    2.4487   -0.0225 C.2     1  LIG1        0.0000
     28 C28         4.8860    2.2674   -0.0129 C.3     1  LIG1        0.0000
     29 N29         2.7668    3.6048   -0.0364 N.2     1  LIG1        0.0000
     30 O30         1.5173    3.4240   -0.0420 O.2     1  LIG1        0.0000
     31 C31         1.2095    2.1307   -0.0281 C.3     1  LIG1        0.0000
     32 N32         0.0654    1.4185   -0.0199 N.pl3   1  LIG1        0.0000
     33 C33        -2.4861   -0.1926    0.0039 C.2     1  LIG1        0.0000
     34 C34        -2.8629    1.2789   -0.0139 C.3     1  LIG1        0.0000
     35 O35        -3.3295   -1.1918    0.0184 O.2     1  LIG1        0.0000
     36 H           5.7669   -2.1259    0.8914 H       1  LIG1        0.0000
     37 H          -2.6197   -4.4144    0.0480 H       1  LIG1        0.0000
     38 H          -3.8957   -3.8056    0.8652 H       1  LIG1        0.0000
     39 H          -3.9047   -3.8226   -0.7676 H       1  LIG1        0.0000
     40 H          -0.6098   -2.7637    0.0275 H       1  LIG1        0.0000
     41 H           1.1843   -1.6615    0.0109 H       1  LIG1        0.0000
     42 H           3.7721   -0.8576   -2.0469 H       1  LIG1        0.0000
     43 H           9.3122   -1.9552   -2.6913 H       1  LIG1        0.0000
     44 H          10.9939   -2.9812   -4.0581 H       1  LIG1        0.0000
     45 H          11.8108   -4.8946   -5.2511 H       1  LIG1        0.0000
     46 H          11.5331   -7.1717   -5.9364 H       1  LIG1        0.0000
     47 H           9.5994   -8.4078   -5.2662 H       1  LIG1        0.0000
     48 H           7.9417   -7.3606   -3.9033 H       1  LIG1        0.0000
     49 H           5.1044    1.2916   -0.0028 H       1  LIG1        0.0000
     50 H           5.2775    2.6882   -0.8312 H       1  LIG1        0.0000
     51 H           5.2689    2.7031    0.8017 H       1  LIG1        0.0000
     52 H          -2.0322    1.8356   -0.0227 H       1  LIG1        0.0000
     53 H          -3.4040    1.4746   -0.8317 H       1  LIG1        0.0000
     54 H          -3.4005    1.4953    0.8011 H       1  LIG1        0.0000
@<TRIPOS>BOND
     1     1     2    1
     2     2     3    2
     3     3     4    1
     4     4     5    1
     5     5     6   ar
     6     6     7   ar
     7     7     8    1
     8     8     9    2
     9     8    10   am
    10    10    11    1
    11    11    12    2
    12    12    13    1
    13    13    14    1
    14    14    15   ar
    15    15    16   ar
    16    16    17   ar
    17    17    18   ar
    18    18    19   ar
    19    19    20   ar
    20    20    21   ar
    21    21    22   ar
    22    22    17   ar
    23    22    23   ar
    24    23    14   ar
    25    13    24    2
    26    24    25    1
    27    25    11    1
    28     7    26   ar
    29    26    27    1
    30    27    28    1
    31    27    29    2
    32    29    30    1
    33    30    31    1
    34    31    26   ar
    35    31    32   ar
    36    32     5   ar
    37     4    33    2
    38    33    34    1
    39    33    35    1
    40    35     2    1
    41    25    36    1
    42     1    37    1
    43     1    38    1
    44     1    39    1
    45     3    40    1
    46     6    41    1
    47    10    42    1
    48    15    43    1
    49    16    44    1
    50    18    45    1
    51    19    46    1
    52    20    47    1
    53    21    48    1
    54    28    49    1
    55    28    50    1
    56    28    51    1
    57    34    52    1
    58    34    53    1
    59    34    54    1
