@<TRIPOS>MOLECULE

  64   67
SMALL
USER_CHARGES
@<TRIPOS>ATOM
   1 C1          -6.1868    -1.9716     3.3734 C.3          1    LIG   0.0000
   2 C2          -5.2496    -1.8939     2.1767 C.ar         1    LIG   0.0000
   3 C3          -5.7267    -2.3220     0.9420 C.ar         1    LIG   0.0000
   4 C4          -4.8899    -2.2578    -0.1672 C.ar         1    LIG   0.0000
   5 C5          -3.5934    -1.7717    -0.0327 C.ar         1    LIG   0.0000
   6 C6          -3.1533    -1.3535     1.2197 C.ar         1    LIG   0.0000
   7 C7          -1.7315    -0.8246     1.3474 C.3          1    LIG   0.0000
   8 C8          -1.0507    -0.8686    -0.0109 C.3          1    LIG   0.0000
   9 N9           0.0969     0.0481    -0.0133 N.pl3        1    LIG   0.0000
  10 C10          1.4071    -0.3124    -0.0293 C.2          1    LIG   0.0000
  11 C11          1.9417    -1.6619    -0.0557 C.ar         1    LIG   0.0000
  12 C12          3.3234    -1.8251    -0.0818 C.ar         1    LIG   0.0000
  13 C13          3.8550    -3.1106    -0.1086 C.ar         1    LIG   0.0000
  14 C14          3.0087    -4.2127    -0.1092 C.ar         1    LIG   0.0000
  15 C15          1.6317    -4.0111    -0.0810 C.ar         1    LIG   0.0000
  16 C16          0.7215    -5.2310    -0.0828 C.3          1    LIG   0.0000
  17 N17          1.1547    -2.7537    -0.0571 N.ar         1    LIG   0.0000
  18 N18          2.0962     0.7986    -0.0261 N.2          1    LIG   0.0000
  19 N19          1.2800     1.8369     0.0092 N.2          1    LIG   0.0000
  20 C20          0.0401     1.4086     0.0104 C.2          1    LIG   0.0000
  21 N21         -1.1148     2.1984     0.0321 N.pl3        1    LIG   0.0000
  22 C22         -1.0026     3.6639     0.0569 C.3          1    LIG   0.0000
  23 C23         -2.4402     1.5627     0.0303 C.3          1    LIG   0.0000
  24 C24         -3.1183     1.8089    -1.3076 C.3          1    LIG   0.0000
  25 C25         -3.2875     2.1547     1.1442 C.ar         1    LIG   0.0000
  26 C26         -4.6352     2.4156     0.9186 C.ar         1    LIG   0.0000
  27 C27         -5.4181     2.9571     1.9326 C.ar         1    LIG   0.0000
  28 C28         -4.8361     3.2317     3.1659 C.ar         1    LIG   0.0000
  29 S29         -5.8112     3.9082     4.4386 S.o2         1    LIG   0.0000
  30 N30         -6.4689     2.7035     5.3178 N.3          1    LIG   0.0000
  31 O31         -4.9885     4.7291     5.2888 O.2          1    LIG   0.0000
  32 O32         -6.8596     4.7113     3.8647 O.2          1    LIG   0.0000
  33 C33         -3.4890     2.9740     3.4006 C.ar         1    LIG   0.0000
  34 C34         -2.7142     2.4324     2.3803 C.ar         1    LIG   0.0000
  35 N35         -3.9909    -1.4293     2.2698 N.ar         1    LIG   0.0000
  36 H           -2.3381     0.5787     0.1762 H            1    LIG   0.0000
  37 H           -7.0681    -2.3445     3.0829 H            1    LIG   0.0000
  38 H           -5.7874    -2.5656     4.0716 H            1    LIG   0.0000
  39 H           -6.3209    -1.0558     3.7519 H            1    LIG   0.0000
  40 H           -6.6594    -2.6716     0.8530 H            1    LIG   0.0000
  41 H           -5.2202    -2.5609    -1.0611 H            1    LIG   0.0000
  42 H           -2.9856    -1.7235    -0.8254 H            1    LIG   0.0000
  43 H           -1.2217    -1.3917     1.9943 H            1    LIG   0.0000
  44 H           -1.7552     0.1189     1.6779 H            1    LIG   0.0000
  45 H           -0.7343    -1.7992    -0.1951 H            1    LIG   0.0000
  46 H           -1.7004    -0.5912    -0.7186 H            1    LIG   0.0000
  47 H            3.9271    -1.0279    -0.0813 H            1    LIG   0.0000
  48 H            4.8462    -3.2415    -0.1274 H            1    LIG   0.0000
  49 H            3.3843    -5.1393    -0.1297 H            1    LIG   0.0000
  50 H            1.2777    -6.0618    -0.1024 H            1    LIG   0.0000
  51 H            0.1572    -5.2270     0.7428 H            1    LIG   0.0000
  52 H            0.1316    -5.2056    -0.8899 H            1    LIG   0.0000
  53 H           -1.9172     4.0681     0.0703 H            1    LIG   0.0000
  54 H           -0.5014     3.9461     0.8750 H            1    LIG   0.0000
  55 H           -0.5128     3.9746    -0.7577 H            1    LIG   0.0000
  56 H           -4.0200     1.3764    -1.3089 H            1    LIG   0.0000
  57 H           -3.2204     2.7929    -1.4535 H            1    LIG   0.0000
  58 H           -2.5607     1.4193    -2.0406 H            1    LIG   0.0000
  59 H           -5.0412     2.2137     0.0272 H            1    LIG   0.0000
  60 H           -6.3875     3.1468     1.7770 H            1    LIG   0.0000
  61 H           -7.0402     2.1335     4.7274 H            1    LIG   0.0000
  62 H           -5.7409     2.1458     5.7164 H            1    LIG   0.0000
  63 H           -3.0829     3.1757     4.2919 H            1    LIG   0.0000
  64 H           -1.7448     2.2426     2.5357 H            1    LIG   0.0000
@<TRIPOS>BOND
   1        1        2 1
   2        2        3 ar
   3        3        4 ar
   4        4        5 ar
   5        5        6 ar
   6        6        7 1
   7        7        8 1
   8        8        9 1
   9        9       10 1
  10       10       11 1
  11       11       12 ar
  12       12       13 ar
  13       13       14 ar
  14       14       15 ar
  15       15       16 1
  16       15       17 ar
  17       17       11 ar
  18       10       18 2
  19       18       19 1
  20       19       20 2
  21       20        9 1
  22       20       21 1
  23       21       22 1
  24       21       23 1
  25       23       24 1
  26       23       25 1
  27       25       26 ar
  28       26       27 ar
  29       27       28 ar
  30       28       29 1
  31       29       30 1
  32       29       31 2
  33       29       32 2
  34       28       33 ar
  35       33       34 ar
  36       34       25 ar
  37        6       35 ar
  38       35        2 ar
  39       23       36 1
  40        1       37 1
  41        1       38 1
  42        1       39 1
  43        3       40 1
  44        4       41 1
  45        5       42 1
  46        7       43 1
  47        7       44 1
  48        8       45 1
  49        8       46 1
  50       12       47 1
  51       13       48 1
  52       14       49 1
  53       16       50 1
  54       16       51 1
  55       16       52 1
  56       22       53 1
  57       22       54 1
  58       22       55 1
  59       24       56 1
  60       24       57 1
  61       24       58 1
  62       26       59 1
  63       27       60 1
  64       30       61 1
  65       30       62 1
  66       33       63 1
  67       34       64 1

@<TRIPOS>MOLECULE

  64   67
SMALL
USER_CHARGES
@<TRIPOS>ATOM
   1 C1          -5.0312    -4.6154     1.4559 C.3          1    LIG   0.0000
   2 C2          -4.7045    -3.1405     1.2702 C.ar         1    LIG   0.0000
   3 C3          -5.7493    -2.2698     0.9775 C.ar         1    LIG   0.0000
   4 C4          -5.4762    -0.9168     0.8064 C.ar         1    LIG   0.0000
   5 C5          -4.1710    -0.4504     0.9265 C.ar         1    LIG   0.0000
   6 C6          -3.1533    -1.3535     1.2197 C.ar         1    LIG   0.0000
   7 C7          -1.7315    -0.8246     1.3474 C.3          1    LIG   0.0000
   8 C8          -1.0507    -0.8686    -0.0109 C.3          1    LIG   0.0000
   9 N9           0.0969     0.0481    -0.0133 N.pl3        1    LIG   0.0000
  10 C10          1.4071    -0.3124    -0.0293 C.2          1    LIG   0.0000
  11 C11          1.9417    -1.6619    -0.0557 C.ar         1    LIG   0.0000
  12 C12          1.4751    -2.5386    -1.0305 C.ar         1    LIG   0.0000
  13 C13          1.9743    -3.8367    -1.0715 C.ar         1    LIG   0.0000
  14 C14          2.9272    -4.2443    -0.1459 C.ar         1    LIG   0.0000
  15 C15          3.3718    -3.3394     0.8139 C.ar         1    LIG   0.0000
  16 C16          4.4154    -3.8052     1.8191 C.3          1    LIG   0.0000
  17 N17          2.8650    -2.0935     0.8232 N.ar         1    LIG   0.0000
  18 N18          2.0962     0.7986    -0.0261 N.2          1    LIG   0.0000
  19 N19          1.2800     1.8369     0.0092 N.2          1    LIG   0.0000
  20 C20          0.0401     1.4086     0.0104 C.2          1    LIG   0.0000
  21 N21         -1.1148     2.1984     0.0321 N.pl3        1    LIG   0.0000
  22 C22         -1.0026     3.6639     0.0569 C.3          1    LIG   0.0000
  23 C23         -2.4402     1.5627     0.0303 C.3          1    LIG   0.0000
  24 C24         -3.1183     1.8089    -1.3076 C.3          1    LIG   0.0000
  25 C25         -3.2875     2.1547     1.1442 C.ar         1    LIG   0.0000
  26 C26         -4.6352     2.4156     0.9186 C.ar         1    LIG   0.0000
  27 C27         -5.4181     2.9571     1.9326 C.ar         1    LIG   0.0000
  28 C28         -4.8361     3.2317     3.1659 C.ar         1    LIG   0.0000
  29 S29         -5.8112     3.9082     4.4386 S.o2         1    LIG   0.0000
  30 N30         -5.8102     2.8990     5.7186 N.3          1    LIG   0.0000
  31 O31         -5.2697     5.1831     4.8320 O.2          1    LIG   0.0000
  32 O32         -7.1604     4.0845     3.9674 O.2          1    LIG   0.0000
  33 C33         -3.4890     2.9740     3.4006 C.ar         1    LIG   0.0000
  34 C34         -2.7142     2.4324     2.3803 C.ar         1    LIG   0.0000
  35 N35         -3.4551    -2.6547     1.3795 N.ar         1    LIG   0.0000
  36 H           -2.3381     0.5787     0.1762 H            1    LIG   0.0000
  37 H           -6.0133    -4.7574     1.3319 H            1    LIG   0.0000
  38 H           -4.5284    -5.1558     0.7812 H            1    LIG   0.0000
  39 H           -4.7667    -4.9020     2.3767 H            1    LIG   0.0000
  40 H           -6.6849    -2.6124     0.8913 H            1    LIG   0.0000
  41 H           -6.2178    -0.2794     0.5971 H            1    LIG   0.0000
  42 H           -3.9667     0.5208     0.8039 H            1    LIG   0.0000
  43 H           -1.2217    -1.3917     1.9943 H            1    LIG   0.0000
  44 H           -1.7552     0.1189     1.6779 H            1    LIG   0.0000
  45 H           -0.7343    -1.7992    -0.1951 H            1    LIG   0.0000
  46 H           -1.7004    -0.5912    -0.7186 H            1    LIG   0.0000
  47 H            0.7892    -2.2392    -1.6937 H            1    LIG   0.0000
  48 H            1.6473    -4.4764    -1.7671 H            1    LIG   0.0000
  49 H            3.2892    -5.1762    -0.1691 H            1    LIG   0.0000
  50 H            4.6533    -4.7588     1.6350 H            1    LIG   0.0000
  51 H            5.2335    -3.2359     1.7382 H            1    LIG   0.0000
  52 H            4.0450    -3.7268     2.7447 H            1    LIG   0.0000
  53 H           -1.9172     4.0681     0.0703 H            1    LIG   0.0000
  54 H           -0.5014     3.9461     0.8750 H            1    LIG   0.0000
  55 H           -0.5128     3.9746    -0.7577 H            1    LIG   0.0000
  56 H           -4.0200     1.3764    -1.3089 H            1    LIG   0.0000
  57 H           -3.2204     2.7929    -1.4535 H            1    LIG   0.0000
  58 H           -2.5607     1.4193    -2.0406 H            1    LIG   0.0000
  59 H           -5.0412     2.2137     0.0272 H            1    LIG   0.0000
  60 H           -6.3875     3.1468     1.7770 H            1    LIG   0.0000
  61 H           -6.1862     2.0136     5.4454 H            1    LIG   0.0000
  62 H           -4.8732     2.7766     6.0458 H            1    LIG   0.0000
  63 H           -3.0829     3.1757     4.2919 H            1    LIG   0.0000
  64 H           -1.7448     2.2426     2.5357 H            1    LIG   0.0000
@<TRIPOS>BOND
   1        1        2 1
   2        2        3 ar
   3        3        4 ar
   4        4        5 ar
   5        5        6 ar
   6        6        7 1
   7        7        8 1
   8        8        9 1
   9        9       10 1
  10       10       11 1
  11       11       12 ar
  12       12       13 ar
  13       13       14 ar
  14       14       15 ar
  15       15       16 1
  16       15       17 ar
  17       17       11 ar
  18       10       18 2
  19       18       19 1
  20       19       20 2
  21       20        9 1
  22       20       21 1
  23       21       22 1
  24       21       23 1
  25       23       24 1
  26       23       25 1
  27       25       26 ar
  28       26       27 ar
  29       27       28 ar
  30       28       29 1
  31       29       30 1
  32       29       31 2
  33       29       32 2
  34       28       33 ar
  35       33       34 ar
  36       34       25 ar
  37        6       35 ar
  38       35        2 ar
  39       23       36 1
  40        1       37 1
  41        1       38 1
  42        1       39 1
  43        3       40 1
  44        4       41 1
  45        5       42 1
  46        7       43 1
  47        7       44 1
  48        8       45 1
  49        8       46 1
  50       12       47 1
  51       13       48 1
  52       14       49 1
  53       16       50 1
  54       16       51 1
  55       16       52 1
  56       22       53 1
  57       22       54 1
  58       22       55 1
  59       24       56 1
  60       24       57 1
  61       24       58 1
  62       26       59 1
  63       27       60 1
  64       30       61 1
  65       30       62 1
  66       33       63 1
  67       34       64 1

@<TRIPOS>MOLECULE

  64   67
SMALL
USER_CHARGES
@<TRIPOS>ATOM
   1 C1          -6.6313    -0.0839     0.5027 C.3          1    LIG   0.0000
   2 C2          -5.4600    -1.0015     0.8230 C.ar         1    LIG   0.0000
   3 C3          -5.7187    -2.3571     0.9986 C.ar         1    LIG   0.0000
   4 C4          -4.6641    -3.2162     1.2889 C.ar         1    LIG   0.0000
   5 C5          -3.3709    -2.7161     1.4021 C.ar         1    LIG   0.0000
   6 C6          -3.1533    -1.3535     1.2197 C.ar         1    LIG   0.0000
   7 C7          -1.7315    -0.8246     1.3474 C.3          1    LIG   0.0000
   8 C8          -1.0507    -0.8686    -0.0109 C.3          1    LIG   0.0000
   9 N9           0.0969     0.0481    -0.0133 N.pl3        1    LIG   0.0000
  10 C10          1.4071    -0.3124    -0.0293 C.2          1    LIG   0.0000
  11 C11          1.9417    -1.6619    -0.0557 C.ar         1    LIG   0.0000
  12 C12          1.4751    -2.5386    -1.0305 C.ar         1    LIG   0.0000
  13 C13          1.9743    -3.8367    -1.0715 C.ar         1    LIG   0.0000
  14 C14          2.9272    -4.2443    -0.1459 C.ar         1    LIG   0.0000
  15 C15          3.3718    -3.3394     0.8139 C.ar         1    LIG   0.0000
  16 C16          4.4154    -3.8052     1.8191 C.3          1    LIG   0.0000
  17 N17          2.8650    -2.0935     0.8232 N.ar         1    LIG   0.0000
  18 N18          2.0962     0.7986    -0.0261 N.2          1    LIG   0.0000
  19 N19          1.2800     1.8369     0.0092 N.2          1    LIG   0.0000
  20 C20          0.0401     1.4086     0.0104 C.2          1    LIG   0.0000
  21 N21         -1.1148     2.1984     0.0321 N.pl3        1    LIG   0.0000
  22 C22         -1.0026     3.6639     0.0569 C.3          1    LIG   0.0000
  23 C23         -2.4402     1.5627     0.0303 C.3          1    LIG   0.0000
  24 C24         -3.1183     1.8089    -1.3076 C.3          1    LIG   0.0000
  25 C25         -3.2875     2.1547     1.1442 C.ar         1    LIG   0.0000
  26 C26         -2.7698     2.2362     2.4329 C.ar         1    LIG   0.0000
  27 C27         -3.5385     2.7768     3.4582 C.ar         1    LIG   0.0000
  28 C28         -4.8228     3.2307     3.1765 C.ar         1    LIG   0.0000
  29 S29         -5.7884     3.9091     4.4554 S.o2         1    LIG   0.0000
  30 N30         -5.5277     5.5160     4.5392 N.3          1    LIG   0.0000
  31 O31         -7.1816     3.6623     4.1876 O.2          1    LIG   0.0000
  32 O32         -5.4246     3.2979     5.7074 O.2          1    LIG   0.0000
  33 C33         -5.3488     3.1533     1.8906 C.ar         1    LIG   0.0000
  34 C34         -4.5725     2.6110     0.8718 C.ar         1    LIG   0.0000
  35 N35         -4.1974    -0.5529     0.9392 N.ar         1    LIG   0.0000
  36 H           -2.3381     0.5787     0.1762 H            1    LIG   0.0000
  37 H           -7.4741    -0.6207     0.4630 H            1    LIG   0.0000
  38 H           -6.7133     0.6130     1.2152 H            1    LIG   0.0000
  39 H           -6.4762     0.3589    -0.3804 H            1    LIG   0.0000
  40 H           -6.6511    -2.7094     0.9172 H            1    LIG   0.0000
  41 H           -4.8354    -4.1932     1.4163 H            1    LIG   0.0000
  42 H           -2.6078    -3.3274     1.6116 H            1    LIG   0.0000
  43 H           -1.2217    -1.3917     1.9943 H            1    LIG   0.0000
  44 H           -1.7552     0.1189     1.6779 H            1    LIG   0.0000
  45 H           -0.7343    -1.7992    -0.1951 H            1    LIG   0.0000
  46 H           -1.7004    -0.5912    -0.7186 H            1    LIG   0.0000
  47 H            0.7892    -2.2392    -1.6937 H            1    LIG   0.0000
  48 H            1.6473    -4.4764    -1.7671 H            1    LIG   0.0000
  49 H            3.2892    -5.1762    -0.1691 H            1    LIG   0.0000
  50 H            4.6533    -4.7588     1.6350 H            1    LIG   0.0000
  51 H            5.2335    -3.2359     1.7382 H            1    LIG   0.0000
  52 H            4.0450    -3.7268     2.7447 H            1    LIG   0.0000
  53 H           -1.9172     4.0681     0.0703 H            1    LIG   0.0000
  54 H           -0.5014     3.9461     0.8750 H            1    LIG   0.0000
  55 H           -0.5128     3.9746    -0.7577 H            1    LIG   0.0000
  56 H           -4.0200     1.3764    -1.3089 H            1    LIG   0.0000
  57 H           -3.2204     2.7929    -1.4535 H            1    LIG   0.0000
  58 H           -2.5607     1.4193    -2.0406 H            1    LIG   0.0000
  59 H           -1.8451     1.9060     2.6220 H            1    LIG   0.0000
  60 H           -3.1722     2.8384     4.3867 H            1    LIG   0.0000
  61 H           -4.5602     5.6874     4.7251 H            1    LIG   0.0000
  62 H           -5.7803     5.9404     3.6697 H            1    LIG   0.0000
  63 H           -6.2735     3.4835     1.7013 H            1    LIG   0.0000
  64 H           -4.9386     2.5493    -0.0568 H            1    LIG   0.0000
@<TRIPOS>BOND
   1        1        2 1
   2        2        3 ar
   3        3        4 ar
   4        4        5 ar
   5        5        6 ar
   6        6        7 1
   7        7        8 1
   8        8        9 1
   9        9       10 1
  10       10       11 1
  11       11       12 ar
  12       12       13 ar
  13       13       14 ar
  14       14       15 ar
  15       15       16 1
  16       15       17 ar
  17       17       11 ar
  18       10       18 2
  19       18       19 1
  20       19       20 2
  21       20        9 1
  22       20       21 1
  23       21       22 1
  24       21       23 1
  25       23       24 1
  26       23       25 1
  27       25       26 ar
  28       26       27 ar
  29       27       28 ar
  30       28       29 1
  31       29       30 1
  32       29       31 2
  33       29       32 2
  34       28       33 ar
  35       33       34 ar
  36       34       25 ar
  37        6       35 ar
  38       35        2 ar
  39       23       36 1
  40        1       37 1
  41        1       38 1
  42        1       39 1
  43        3       40 1
  44        4       41 1
  45        5       42 1
  46        7       43 1
  47        7       44 1
  48        8       45 1
  49        8       46 1
  50       12       47 1
  51       13       48 1
  52       14       49 1
  53       16       50 1
  54       16       51 1
  55       16       52 1
  56       22       53 1
  57       22       54 1
  58       22       55 1
  59       24       56 1
  60       24       57 1
  61       24       58 1
  62       26       59 1
  63       27       60 1
  64       30       61 1
  65       30       62 1
  66       33       63 1
  67       34       64 1

@<TRIPOS>MOLECULE

  64   67
SMALL
USER_CHARGES
@<TRIPOS>ATOM
   1 C1          -5.0312    -4.6154     1.4559 C.3          1    LIG   0.0000
   2 C2          -4.7045    -3.1405     1.2702 C.ar         1    LIG   0.0000
   3 C3          -5.7493    -2.2698     0.9775 C.ar         1    LIG   0.0000
   4 C4          -5.4762    -0.9168     0.8064 C.ar         1    LIG   0.0000
   5 C5          -4.1710    -0.4504     0.9265 C.ar         1    LIG   0.0000
   6 C6          -3.1533    -1.3535     1.2197 C.ar         1    LIG   0.0000
   7 C7          -1.7315    -0.8246     1.3474 C.3          1    LIG   0.0000
   8 C8          -1.0507    -0.8686    -0.0109 C.3          1    LIG   0.0000
   9 N9           0.0969     0.0481    -0.0133 N.pl3        1    LIG   0.0000
  10 C10          1.4071    -0.3124    -0.0293 C.2          1    LIG   0.0000
  11 C11          1.9417    -1.6619    -0.0557 C.ar         1    LIG   0.0000
  12 C12          1.2098    -2.6748     0.5566 C.ar         1    LIG   0.0000
  13 C13          1.7059    -3.9746     0.5430 C.ar         1    LIG   0.0000
  14 C14          2.9189    -4.2489    -0.0769 C.ar         1    LIG   0.0000
  15 C15          3.6227    -3.2108    -0.6806 C.ar         1    LIG   0.0000
  16 C16          4.9496    -3.5315    -1.3539 C.3          1    LIG   0.0000
  17 N17          3.1121    -1.9669    -0.6459 N.ar         1    LIG   0.0000
  18 N18          2.0962     0.7986    -0.0261 N.2          1    LIG   0.0000
  19 N19          1.2800     1.8369     0.0092 N.2          1    LIG   0.0000
  20 C20          0.0401     1.4086     0.0104 C.2          1    LIG   0.0000
  21 N21         -1.1148     2.1984     0.0321 N.pl3        1    LIG   0.0000
  22 C22         -1.0026     3.6639     0.0569 C.3          1    LIG   0.0000
  23 C23         -2.4402     1.5627     0.0303 C.3          1    LIG   0.0000
  24 C24         -3.1183     1.8089    -1.3076 C.3          1    LIG   0.0000
  25 C25         -3.2875     2.1547     1.1442 C.ar         1    LIG   0.0000
  26 C26         -2.7698     2.2362     2.4329 C.ar         1    LIG   0.0000
  27 C27         -3.5385     2.7768     3.4582 C.ar         1    LIG   0.0000
  28 C28         -4.8228     3.2307     3.1765 C.ar         1    LIG   0.0000
  29 S29         -5.7884     3.9091     4.4554 S.o2         1    LIG   0.0000
  30 N30         -5.5277     5.5160     4.5392 N.3          1    LIG   0.0000
  31 O31         -7.1816     3.6623     4.1876 O.2          1    LIG   0.0000
  32 O32         -5.4246     3.2979     5.7074 O.2          1    LIG   0.0000
  33 C33         -5.3488     3.1533     1.8906 C.ar         1    LIG   0.0000
  34 C34         -4.5725     2.6110     0.8718 C.ar         1    LIG   0.0000
  35 N35         -3.4551    -2.6547     1.3795 N.ar         1    LIG   0.0000
  36 H           -2.3381     0.5787     0.1762 H            1    LIG   0.0000
  37 H           -6.0133    -4.7574     1.3319 H            1    LIG   0.0000
  38 H           -4.5284    -5.1558     0.7812 H            1    LIG   0.0000
  39 H           -4.7667    -4.9020     2.3767 H            1    LIG   0.0000
  40 H           -6.6849    -2.6124     0.8913 H            1    LIG   0.0000
  41 H           -6.2178    -0.2794     0.5971 H            1    LIG   0.0000
  42 H           -3.9667     0.5208     0.8039 H            1    LIG   0.0000
  43 H           -1.2217    -1.3917     1.9943 H            1    LIG   0.0000
  44 H           -1.7552     0.1189     1.6779 H            1    LIG   0.0000
  45 H           -0.7343    -1.7992    -0.1951 H            1    LIG   0.0000
  46 H           -1.7004    -0.5912    -0.7186 H            1    LIG   0.0000
  47 H            0.3375    -2.4708     1.0011 H            1    LIG   0.0000
  48 H            1.1896    -4.7114     0.9794 H            1    LIG   0.0000
  49 H            3.2817    -5.1807    -0.0892 H            1    LIG   0.0000
  50 H            5.1410    -4.5089    -1.2645 H            1    LIG   0.0000
  51 H            4.8990    -3.2889    -2.3227 H            1    LIG   0.0000
  52 H            5.6804    -3.0073    -0.9167 H            1    LIG   0.0000
  53 H           -1.9172     4.0681     0.0703 H            1    LIG   0.0000
  54 H           -0.5014     3.9461     0.8750 H            1    LIG   0.0000
  55 H           -0.5128     3.9746    -0.7577 H            1    LIG   0.0000
  56 H           -4.0200     1.3764    -1.3089 H            1    LIG   0.0000
  57 H           -3.2204     2.7929    -1.4535 H            1    LIG   0.0000
  58 H           -2.5607     1.4193    -2.0406 H            1    LIG   0.0000
  59 H           -1.8451     1.9060     2.6220 H            1    LIG   0.0000
  60 H           -3.1722     2.8384     4.3867 H            1    LIG   0.0000
  61 H           -4.5602     5.6874     4.7251 H            1    LIG   0.0000
  62 H           -5.7803     5.9404     3.6697 H            1    LIG   0.0000
  63 H           -6.2735     3.4835     1.7013 H            1    LIG   0.0000
  64 H           -4.9386     2.5493    -0.0568 H            1    LIG   0.0000
@<TRIPOS>BOND
   1        1        2 1
   2        2        3 ar
   3        3        4 ar
   4        4        5 ar
   5        5        6 ar
   6        6        7 1
   7        7        8 1
   8        8        9 1
   9        9       10 1
  10       10       11 1
  11       11       12 ar
  12       12       13 ar
  13       13       14 ar
  14       14       15 ar
  15       15       16 1
  16       15       17 ar
  17       17       11 ar
  18       10       18 2
  19       18       19 1
  20       19       20 2
  21       20        9 1
  22       20       21 1
  23       21       22 1
  24       21       23 1
  25       23       24 1
  26       23       25 1
  27       25       26 ar
  28       26       27 ar
  29       27       28 ar
  30       28       29 1
  31       29       30 1
  32       29       31 2
  33       29       32 2
  34       28       33 ar
  35       33       34 ar
  36       34       25 ar
  37        6       35 ar
  38       35        2 ar
  39       23       36 1
  40        1       37 1
  41        1       38 1
  42        1       39 1
  43        3       40 1
  44        4       41 1
  45        5       42 1
  46        7       43 1
  47        7       44 1
  48        8       45 1
  49        8       46 1
  50       12       47 1
  51       13       48 1
  52       14       49 1
  53       16       50 1
  54       16       51 1
  55       16       52 1
  56       22       53 1
  57       22       54 1
  58       22       55 1
  59       24       56 1
  60       24       57 1
  61       24       58 1
  62       26       59 1
  63       27       60 1
  64       30       61 1
  65       30       62 1
  66       33       63 1
  67       34       64 1

@<TRIPOS>MOLECULE

  64   67
SMALL
USER_CHARGES
@<TRIPOS>ATOM
   1 C1          -5.6945    -1.9033    -1.5511 C.3          1    LIG   0.0000
   2 C2          -5.0809    -1.6212    -0.1871 C.ar         1    LIG   0.0000
   3 C3          -5.9186    -1.6352     0.9236 C.ar         1    LIG   0.0000
   4 C4          -5.3806    -1.3834     2.1813 C.ar         1    LIG   0.0000
   5 C5          -4.0212    -1.1201     2.3160 C.ar         1    LIG   0.0000
   6 C6          -3.2166    -1.1147     1.1803 C.ar         1    LIG   0.0000
   7 C7          -1.7315    -0.8246     1.3474 C.3          1    LIG   0.0000
   8 C8          -1.0507    -0.8686    -0.0109 C.3          1    LIG   0.0000
   9 N9           0.0969     0.0481    -0.0133 N.pl3        1    LIG   0.0000
  10 C10          1.4071    -0.3124    -0.0293 C.2          1    LIG   0.0000
  11 C11          1.9417    -1.6619    -0.0557 C.ar         1    LIG   0.0000
  12 C12          3.3234    -1.8251    -0.0818 C.ar         1    LIG   0.0000
  13 C13          3.8550    -3.1106    -0.1086 C.ar         1    LIG   0.0000
  14 C14          3.0087    -4.2127    -0.1092 C.ar         1    LIG   0.0000
  15 C15          1.6317    -4.0111    -0.0810 C.ar         1    LIG   0.0000
  16 C16          0.7215    -5.2310    -0.0828 C.3          1    LIG   0.0000
  17 N17          1.1547    -2.7537    -0.0571 N.ar         1    LIG   0.0000
  18 N18          2.0962     0.7986    -0.0261 N.2          1    LIG   0.0000
  19 N19          1.2800     1.8369     0.0092 N.2          1    LIG   0.0000
  20 C20          0.0401     1.4086     0.0104 C.2          1    LIG   0.0000
  21 N21         -1.1148     2.1984     0.0321 N.pl3        1    LIG   0.0000
  22 C22         -1.0026     3.6639     0.0569 C.3          1    LIG   0.0000
  23 C23         -2.4402     1.5627     0.0303 C.3          1    LIG   0.0000
  24 C24         -3.1183     1.8089    -1.3076 C.3          1    LIG   0.0000
  25 C25         -3.2875     2.1547     1.1442 C.ar         1    LIG   0.0000
  26 C26         -3.4306     1.4616     2.3419 C.ar         1    LIG   0.0000
  27 C27         -4.2041     1.9963     3.3667 C.ar         1    LIG   0.0000
  28 C28         -4.8274     3.2252     3.1760 C.ar         1    LIG   0.0000
  29 S29         -5.7954     3.8994     4.4553 S.o2         1    LIG   0.0000
  30 N30         -4.8585     4.8254     5.4152 N.3          1    LIG   0.0000
  31 O31         -6.8461     4.7048     3.8887 O.2          1    LIG   0.0000
  32 O32         -6.3734     2.8337     5.2324 O.2          1    LIG   0.0000
  33 C33         -4.6899     3.9255     1.9815 C.ar         1    LIG   0.0000
  34 C34         -3.9143     3.3826     0.9624 C.ar         1    LIG   0.0000
  35 N35         -3.7716    -1.3634    -0.0197 N.ar         1    LIG   0.0000
  36 H           -2.3381     0.5787     0.1762 H            1    LIG   0.0000
  37 H           -6.6755    -2.0677    -1.4478 H            1    LIG   0.0000
  38 H           -5.5498    -1.1163    -2.1509 H            1    LIG   0.0000
  39 H           -5.2614    -2.7112    -1.9508 H            1    LIG   0.0000
  40 H           -6.8951    -1.8238     0.8191 H            1    LIG   0.0000
  41 H           -5.9708    -1.3916     2.9885 H            1    LIG   0.0000
  42 H           -3.6274    -0.9371     3.2168 H            1    LIG   0.0000
  43 H           -1.3230    -1.5123     1.9475 H            1    LIG   0.0000
  44 H           -1.6124     0.0827     1.7507 H            1    LIG   0.0000
  45 H           -0.7343    -1.7992    -0.1951 H            1    LIG   0.0000
  46 H           -1.7004    -0.5912    -0.7186 H            1    LIG   0.0000
  47 H            3.9271    -1.0279    -0.0813 H            1    LIG   0.0000
  48 H            4.8462    -3.2415    -0.1274 H            1    LIG   0.0000
  49 H            3.3843    -5.1393    -0.1297 H            1    LIG   0.0000
  50 H            1.2777    -6.0618    -0.1024 H            1    LIG   0.0000
  51 H            0.1572    -5.2270     0.7428 H            1    LIG   0.0000
  52 H            0.1316    -5.2056    -0.8899 H            1    LIG   0.0000
  53 H           -1.9172     4.0681     0.0703 H            1    LIG   0.0000
  54 H           -0.5014     3.9461     0.8750 H            1    LIG   0.0000
  55 H           -0.5128     3.9746    -0.7577 H            1    LIG   0.0000
  56 H           -4.0200     1.3764    -1.3089 H            1    LIG   0.0000
  57 H           -3.2204     2.7929    -1.4535 H            1    LIG   0.0000
  58 H           -2.5607     1.4193    -2.0406 H            1    LIG   0.0000
  59 H           -2.9773     0.5790     2.4660 H            1    LIG   0.0000
  60 H           -4.3108     1.5033     4.2302 H            1    LIG   0.0000
  61 H           -4.1288     4.2661     5.8086 H            1    LIG   0.0000
  62 H           -4.4570     5.5654     4.8755 H            1    LIG   0.0000
  63 H           -5.1431     4.8082     1.8572 H            1    LIG   0.0000
  64 H           -3.8075     3.8754     0.0988 H            1    LIG   0.0000
@<TRIPOS>BOND
   1        1        2 1
   2        2        3 ar
   3        3        4 ar
   4        4        5 ar
   5        5        6 ar
   6        6        7 1
   7        7        8 1
   8        8        9 1
   9        9       10 1
  10       10       11 1
  11       11       12 ar
  12       12       13 ar
  13       13       14 ar
  14       14       15 ar
  15       15       16 1
  16       15       17 ar
  17       17       11 ar
  18       10       18 2
  19       18       19 1
  20       19       20 2
  21       20        9 1
  22       20       21 1
  23       21       22 1
  24       21       23 1
  25       23       24 1
  26       23       25 1
  27       25       26 ar
  28       26       27 ar
  29       27       28 ar
  30       28       29 1
  31       29       30 1
  32       29       31 2
  33       29       32 2
  34       28       33 ar
  35       33       34 ar
  36       34       25 ar
  37        6       35 ar
  38       35        2 ar
  39       23       36 1
  40        1       37 1
  41        1       38 1
  42        1       39 1
  43        3       40 1
  44        4       41 1
  45        5       42 1
  46        7       43 1
  47        7       44 1
  48        8       45 1
  49        8       46 1
  50       12       47 1
  51       13       48 1
  52       14       49 1
  53       16       50 1
  54       16       51 1
  55       16       52 1
  56       22       53 1
  57       22       54 1
  58       22       55 1
  59       24       56 1
  60       24       57 1
  61       24       58 1
  62       26       59 1
  63       27       60 1
  64       30       61 1
  65       30       62 1
  66       33       63 1
  67       34       64 1

@<TRIPOS>MOLECULE

  64   67
SMALL
USER_CHARGES
@<TRIPOS>ATOM
   1 C1          -6.2885    -1.8640    -3.2704 C.3          1    LIG   0.0000
   2 C2          -5.3161    -1.8214    -2.1002 C.ar         1    LIG   0.0000
   3 C3          -5.7556    -2.2892    -0.8659 C.ar         1    LIG   0.0000
   4 C4          -4.8842    -2.2634     0.2179 C.ar         1    LIG   0.0000
   5 C5          -3.5922    -1.7724     0.0597 C.ar         1    LIG   0.0000
   6 C6          -3.1907    -1.3131    -1.1913 C.ar         1    LIG   0.0000
   7 C7          -1.7732    -0.7795    -1.3452 C.3          1    LIG   0.0000
   8 C8          -1.0507    -0.8686    -0.0109 C.3          1    LIG   0.0000
   9 N9           0.0969     0.0481    -0.0133 N.pl3        1    LIG   0.0000
  10 C10          1.4071    -0.3124    -0.0293 C.2          1    LIG   0.0000
  11 C11          1.9417    -1.6619    -0.0557 C.ar         1    LIG   0.0000
  12 C12          3.3234    -1.8251    -0.0818 C.ar         1    LIG   0.0000
  13 C13          3.8550    -3.1106    -0.1086 C.ar         1    LIG   0.0000
  14 C14          3.0087    -4.2127    -0.1092 C.ar         1    LIG   0.0000
  15 C15          1.6317    -4.0111    -0.0810 C.ar         1    LIG   0.0000
  16 C16          0.7215    -5.2310    -0.0828 C.3          1    LIG   0.0000
  17 N17          1.1547    -2.7537    -0.0571 N.ar         1    LIG   0.0000
  18 N18          2.0962     0.7986    -0.0261 N.2          1    LIG   0.0000
  19 N19          1.2800     1.8369     0.0092 N.2          1    LIG   0.0000
  20 C20          0.0401     1.4086     0.0104 C.2          1    LIG   0.0000
  21 N21         -1.1148     2.1984     0.0321 N.pl3        1    LIG   0.0000
  22 C22         -1.0026     3.6639     0.0569 C.3          1    LIG   0.0000
  23 C23         -2.4402     1.5627     0.0303 C.3          1    LIG   0.0000
  24 C24         -3.3030     2.1931    -1.0507 C.3          1    LIG   0.0000
  25 C25         -3.0994     1.7619     1.3849 C.ar         1    LIG   0.0000
  26 C26         -4.4593     2.0473     1.4526 C.ar         1    LIG   0.0000
  27 C27         -5.0708     2.2309     2.6882 C.ar         1    LIG   0.0000
  28 C28         -4.3065     2.1256     3.8458 C.ar         1    LIG   0.0000
  29 S29         -5.0666     2.3532     5.3945 S.o2         1    LIG   0.0000
  30 N30         -5.6147     0.9207     5.9465 N.3          1    LIG   0.0000
  31 O31         -4.1085     2.8913     6.3250 O.2          1    LIG   0.0000
  32 O32         -6.1697     3.2687     5.2579 O.2          1    LIG   0.0000
  33 C33         -2.9459     1.8404     3.7877 C.ar         1    LIG   0.0000
  34 C34         -2.3433     1.6585     2.5473 C.ar         1    LIG   0.0000
  35 N35         -4.0604    -1.3542    -2.2169 N.ar         1    LIG   0.0000
  36 H           -2.3404     0.5844    -0.1512 H            1    LIG   0.0000
  37 H           -7.1610    -2.2454    -2.9651 H            1    LIG   0.0000
  38 H           -6.4331    -0.9374    -3.6176 H            1    LIG   0.0000
  39 H           -5.9103    -2.4371    -3.9974 H            1    LIG   0.0000
  40 H           -6.6862    -2.6395    -0.7592 H            1    LIG   0.0000
  41 H           -5.1864    -2.5978     1.1106 H            1    LIG   0.0000
  42 H           -2.9604    -1.7498     0.8345 H            1    LIG   0.0000
  43 H           -1.8067     0.1745    -1.6430 H            1    LIG   0.0000
  44 H           -1.2840    -1.3243    -2.0262 H            1    LIG   0.0000
  45 H           -1.6781    -0.6154     0.7255 H            1    LIG   0.0000
  46 H           -0.7292    -1.8047     0.1322 H            1    LIG   0.0000
  47 H            3.9271    -1.0279    -0.0813 H            1    LIG   0.0000
  48 H            4.8462    -3.2415    -0.1274 H            1    LIG   0.0000
  49 H            3.3843    -5.1393    -0.1297 H            1    LIG   0.0000
  50 H            1.2777    -6.0618    -0.1024 H            1    LIG   0.0000
  51 H            0.1572    -5.2270     0.7428 H            1    LIG   0.0000
  52 H            0.1316    -5.2056    -0.8899 H            1    LIG   0.0000
  53 H           -1.9172     4.0681     0.0703 H            1    LIG   0.0000
  54 H           -0.5014     3.9461     0.8750 H            1    LIG   0.0000
  55 H           -0.5128     3.9746    -0.7577 H            1    LIG   0.0000
  56 H           -4.2046     1.7606    -1.0520 H            1    LIG   0.0000
  57 H           -3.4028     3.1714    -0.8692 H            1    LIG   0.0000
  58 H           -2.8692     2.0620    -1.9421 H            1    LIG   0.0000
  59 H           -4.9973     2.1205     0.6128 H            1    LIG   0.0000
  60 H           -6.0479     2.4360     2.7439 H            1    LIG   0.0000
  61 H           -6.2801     0.5470     5.3003 H            1    LIG   0.0000
  62 H           -4.8487     0.2849     6.0413 H            1    LIG   0.0000
  63 H           -2.4078     1.7672     4.6274 H            1    LIG   0.0000
  64 H           -1.3661     1.4534     2.4915 H            1    LIG   0.0000
@<TRIPOS>BOND
   1        1        2 1
   2        2        3 ar
   3        3        4 ar
   4        4        5 ar
   5        5        6 ar
   6        6        7 1
   7        7        8 1
   8        8        9 1
   9        9       10 1
  10       10       11 1
  11       11       12 ar
  12       12       13 ar
  13       13       14 ar
  14       14       15 ar
  15       15       16 1
  16       15       17 ar
  17       17       11 ar
  18       10       18 2
  19       18       19 1
  20       19       20 2
  21       20        9 1
  22       20       21 1
  23       21       22 1
  24       21       23 1
  25       23       24 1
  26       23       25 1
  27       25       26 ar
  28       26       27 ar
  29       27       28 ar
  30       28       29 1
  31       29       30 1
  32       29       31 2
  33       29       32 2
  34       28       33 ar
  35       33       34 ar
  36       34       25 ar
  37        6       35 ar
  38       35        2 ar
  39       23       36 1
  40        1       37 1
  41        1       38 1
  42        1       39 1
  43        3       40 1
  44        4       41 1
  45        5       42 1
  46        7       43 1
  47        7       44 1
  48        8       45 1
  49        8       46 1
  50       12       47 1
  51       13       48 1
  52       14       49 1
  53       16       50 1
  54       16       51 1
  55       16       52 1
  56       22       53 1
  57       22       54 1
  58       22       55 1
  59       24       56 1
  60       24       57 1
  61       24       58 1
  62       26       59 1
  63       27       60 1
  64       30       61 1
  65       30       62 1
  66       33       63 1
  67       34       64 1

@<TRIPOS>MOLECULE

  64   67
SMALL
USER_CHARGES
@<TRIPOS>ATOM
   1 C1          -5.4324    -2.7723     1.4673 C.3          1    LIG   0.0000
   2 C2          -4.9112    -2.2526     0.1350 C.ar         1    LIG   0.0000
   3 C3          -5.7713    -2.2741    -0.9583 C.ar         1    LIG   0.0000
   4 C4          -5.3190    -1.8015    -2.1857 C.ar         1    LIG   0.0000
   5 C5          -4.0206    -1.3174    -2.3087 C.ar         1    LIG   0.0000
   6 C6          -3.1907    -1.3131    -1.1913 C.ar         1    LIG   0.0000
   7 C7          -1.7732    -0.7795    -1.3452 C.3          1    LIG   0.0000
   8 C8          -1.0507    -0.8686    -0.0109 C.3          1    LIG   0.0000
   9 N9           0.0969     0.0481    -0.0133 N.pl3        1    LIG   0.0000
  10 C10          1.4071    -0.3124    -0.0293 C.2          1    LIG   0.0000
  11 C11          1.9417    -1.6619    -0.0557 C.ar         1    LIG   0.0000
  12 C12          1.3951    -2.6063     0.8079 C.ar         1    LIG   0.0000
  13 C13          1.8947    -3.9049     0.7984 C.ar         1    LIG   0.0000
  14 C14          2.9274    -4.2458    -0.0665 C.ar         1    LIG   0.0000
  15 C15          3.4484    -3.2752    -0.9175 C.ar         1    LIG   0.0000
  16 C16          4.5795    -3.6682    -1.8569 C.3          1    LIG   0.0000
  17 N17          2.9408    -2.0302    -0.8788 N.ar         1    LIG   0.0000
  18 N18          2.0962     0.7986    -0.0261 N.2          1    LIG   0.0000
  19 N19          1.2800     1.8369     0.0092 N.2          1    LIG   0.0000
  20 C20          0.0401     1.4086     0.0104 C.2          1    LIG   0.0000
  21 N21         -1.1148     2.1984     0.0321 N.pl3        1    LIG   0.0000
  22 C22         -1.0026     3.6639     0.0569 C.3          1    LIG   0.0000
  23 C23         -2.4402     1.5627     0.0303 C.3          1    LIG   0.0000
  24 C24         -3.3030     2.1931    -1.0507 C.3          1    LIG   0.0000
  25 C25         -3.0994     1.7619     1.3849 C.ar         1    LIG   0.0000
  26 C26         -4.4593     2.0473     1.4526 C.ar         1    LIG   0.0000
  27 C27         -5.0708     2.2309     2.6882 C.ar         1    LIG   0.0000
  28 C28         -4.3065     2.1256     3.8458 C.ar         1    LIG   0.0000
  29 S29         -5.0666     2.3532     5.3945 S.o2         1    LIG   0.0000
  30 N30         -5.6147     0.9207     5.9465 N.3          1    LIG   0.0000
  31 O31         -4.1085     2.8913     6.3250 O.2          1    LIG   0.0000
  32 O32         -6.1697     3.2687     5.2579 O.2          1    LIG   0.0000
  33 C33         -2.9459     1.8404     3.7877 C.ar         1    LIG   0.0000
  34 C34         -2.3433     1.6585     2.5473 C.ar         1    LIG   0.0000
  35 N35         -3.6627    -1.7771    -0.0202 N.ar         1    LIG   0.0000
  36 H           -2.3404     0.5844    -0.1512 H            1    LIG   0.0000
  37 H           -6.3791    -3.0757     1.3594 H            1    LIG   0.0000
  38 H           -4.8683    -3.5410     1.7689 H            1    LIG   0.0000
  39 H           -5.3921    -2.0416     2.1488 H            1    LIG   0.0000
  40 H           -6.7029    -2.6248    -0.8628 H            1    LIG   0.0000
  41 H           -5.9270    -1.8098    -2.9797 H            1    LIG   0.0000
  42 H           -3.6880    -0.9769    -3.1882 H            1    LIG   0.0000
  43 H           -1.8067     0.1745    -1.6430 H            1    LIG   0.0000
  44 H           -1.2840    -1.3243    -2.0262 H            1    LIG   0.0000
  45 H           -1.6781    -0.6154     0.7255 H            1    LIG   0.0000
  46 H           -0.7292    -1.8047     0.1322 H            1    LIG   0.0000
  47 H            0.6520    -2.3546     1.4280 H            1    LIG   0.0000
  48 H            1.5105    -4.5929     1.4141 H            1    LIG   0.0000
  49 H            3.2918    -5.1769    -0.0775 H            1    LIG   0.0000
  50 H            4.8028    -4.6339    -1.7242 H            1    LIG   0.0000
  51 H            4.2936    -3.5192    -2.8035 H            1    LIG   0.0000
  52 H            5.3854    -3.1096    -1.6603 H            1    LIG   0.0000
  53 H           -1.9172     4.0681     0.0703 H            1    LIG   0.0000
  54 H           -0.5014     3.9461     0.8750 H            1    LIG   0.0000
  55 H           -0.5128     3.9746    -0.7577 H            1    LIG   0.0000
  56 H           -4.2046     1.7606    -1.0520 H            1    LIG   0.0000
  57 H           -3.4028     3.1714    -0.8692 H            1    LIG   0.0000
  58 H           -2.8692     2.0620    -1.9421 H            1    LIG   0.0000
  59 H           -4.9973     2.1205     0.6128 H            1    LIG   0.0000
  60 H           -6.0479     2.4360     2.7439 H            1    LIG   0.0000
  61 H           -6.2801     0.5470     5.3003 H            1    LIG   0.0000
  62 H           -4.8487     0.2849     6.0413 H            1    LIG   0.0000
  63 H           -2.4078     1.7672     4.6274 H            1    LIG   0.0000
  64 H           -1.3661     1.4534     2.4915 H            1    LIG   0.0000
@<TRIPOS>BOND
   1        1        2 1
   2        2        3 ar
   3        3        4 ar
   4        4        5 ar
   5        5        6 ar
   6        6        7 1
   7        7        8 1
   8        8        9 1
   9        9       10 1
  10       10       11 1
  11       11       12 ar
  12       12       13 ar
  13       13       14 ar
  14       14       15 ar
  15       15       16 1
  16       15       17 ar
  17       17       11 ar
  18       10       18 2
  19       18       19 1
  20       19       20 2
  21       20        9 1
  22       20       21 1
  23       21       22 1
  24       21       23 1
  25       23       24 1
  26       23       25 1
  27       25       26 ar
  28       26       27 ar
  29       27       28 ar
  30       28       29 1
  31       29       30 1
  32       29       31 2
  33       29       32 2
  34       28       33 ar
  35       33       34 ar
  36       34       25 ar
  37        6       35 ar
  38       35        2 ar
  39       23       36 1
  40        1       37 1
  41        1       38 1
  42        1       39 1
  43        3       40 1
  44        4       41 1
  45        5       42 1
  46        7       43 1
  47        7       44 1
  48        8       45 1
  49        8       46 1
  50       12       47 1
  51       13       48 1
  52       14       49 1
  53       16       50 1
  54       16       51 1
  55       16       52 1
  56       22       53 1
  57       22       54 1
  58       22       55 1
  59       24       56 1
  60       24       57 1
  61       24       58 1
  62       26       59 1
  63       27       60 1
  64       30       61 1
  65       30       62 1
  66       33       63 1
  67       34       64 1

@<TRIPOS>MOLECULE

  64   67
SMALL
USER_CHARGES
@<TRIPOS>ATOM
   1 C1          -6.2885    -1.8640    -3.2704 C.3          1    LIG   0.0000
   2 C2          -5.3161    -1.8214    -2.1002 C.ar         1    LIG   0.0000
   3 C3          -5.7556    -2.2892    -0.8659 C.ar         1    LIG   0.0000
   4 C4          -4.8842    -2.2634     0.2179 C.ar         1    LIG   0.0000
   5 C5          -3.5922    -1.7724     0.0597 C.ar         1    LIG   0.0000
   6 C6          -3.1907    -1.3131    -1.1913 C.ar         1    LIG   0.0000
   7 C7          -1.7732    -0.7795    -1.3452 C.3          1    LIG   0.0000
   8 C8          -1.0507    -0.8686    -0.0109 C.3          1    LIG   0.0000
   9 N9           0.0969     0.0481    -0.0133 N.pl3        1    LIG   0.0000
  10 C10          1.4071    -0.3124    -0.0293 C.2          1    LIG   0.0000
  11 C11          1.9417    -1.6619    -0.0557 C.ar         1    LIG   0.0000
  12 C12          1.3951    -2.6063     0.8079 C.ar         1    LIG   0.0000
  13 C13          1.8947    -3.9049     0.7984 C.ar         1    LIG   0.0000
  14 C14          2.9274    -4.2458    -0.0665 C.ar         1    LIG   0.0000
  15 C15          3.4484    -3.2752    -0.9175 C.ar         1    LIG   0.0000
  16 C16          4.5795    -3.6682    -1.8569 C.3          1    LIG   0.0000
  17 N17          2.9408    -2.0302    -0.8788 N.ar         1    LIG   0.0000
  18 N18          2.0962     0.7986    -0.0261 N.2          1    LIG   0.0000
  19 N19          1.2800     1.8369     0.0092 N.2          1    LIG   0.0000
  20 C20          0.0401     1.4086     0.0104 C.2          1    LIG   0.0000
  21 N21         -1.1148     2.1984     0.0321 N.pl3        1    LIG   0.0000
  22 C22         -1.0026     3.6639     0.0569 C.3          1    LIG   0.0000
  23 C23         -2.4402     1.5627     0.0303 C.3          1    LIG   0.0000
  24 C24         -3.3030     2.1931    -1.0507 C.3          1    LIG   0.0000
  25 C25         -3.0994     1.7619     1.3849 C.ar         1    LIG   0.0000
  26 C26         -4.4593     2.0473     1.4526 C.ar         1    LIG   0.0000
  27 C27         -5.0708     2.2309     2.6882 C.ar         1    LIG   0.0000
  28 C28         -4.3065     2.1256     3.8458 C.ar         1    LIG   0.0000
  29 S29         -5.0666     2.3532     5.3945 S.o2         1    LIG   0.0000
  30 N30         -4.9933     3.9277     5.8096 N.3          1    LIG   0.0000
  31 O31         -6.4441     1.9405     5.3184 O.2          1    LIG   0.0000
  32 O32         -4.3830     1.5631     6.3854 O.2          1    LIG   0.0000
  33 C33         -2.9459     1.8404     3.7877 C.ar         1    LIG   0.0000
  34 C34         -2.3433     1.6585     2.5473 C.ar         1    LIG   0.0000
  35 N35         -4.0604    -1.3542    -2.2169 N.ar         1    LIG   0.0000
  36 H           -2.3404     0.5844    -0.1512 H            1    LIG   0.0000
  37 H           -7.1610    -2.2454    -2.9651 H            1    LIG   0.0000
  38 H           -6.4331    -0.9374    -3.6176 H            1    LIG   0.0000
  39 H           -5.9103    -2.4371    -3.9974 H            1    LIG   0.0000
  40 H           -6.6862    -2.6395    -0.7592 H            1    LIG   0.0000
  41 H           -5.1864    -2.5978     1.1106 H            1    LIG   0.0000
  42 H           -2.9604    -1.7498     0.8345 H            1    LIG   0.0000
  43 H           -1.8067     0.1745    -1.6430 H            1    LIG   0.0000
  44 H           -1.2840    -1.3243    -2.0262 H            1    LIG   0.0000
  45 H           -1.6781    -0.6154     0.7255 H            1    LIG   0.0000
  46 H           -0.7292    -1.8047     0.1322 H            1    LIG   0.0000
  47 H            0.6520    -2.3546     1.4280 H            1    LIG   0.0000
  48 H            1.5105    -4.5929     1.4141 H            1    LIG   0.0000
  49 H            3.2918    -5.1769    -0.0775 H            1    LIG   0.0000
  50 H            4.8028    -4.6339    -1.7242 H            1    LIG   0.0000
  51 H            4.2936    -3.5192    -2.8035 H            1    LIG   0.0000
  52 H            5.3854    -3.1096    -1.6603 H            1    LIG   0.0000
  53 H           -1.9172     4.0681     0.0703 H            1    LIG   0.0000
  54 H           -0.5014     3.9461     0.8750 H            1    LIG   0.0000
  55 H           -0.5128     3.9746    -0.7577 H            1    LIG   0.0000
  56 H           -4.2046     1.7606    -1.0520 H            1    LIG   0.0000
  57 H           -3.4028     3.1714    -0.8692 H            1    LIG   0.0000
  58 H           -2.8692     2.0620    -1.9421 H            1    LIG   0.0000
  59 H           -4.9973     2.1205     0.6128 H            1    LIG   0.0000
  60 H           -6.0479     2.4360     2.7439 H            1    LIG   0.0000
  61 H           -4.0367     4.2142     5.8625 H            1    LIG   0.0000
  62 H           -5.4680     4.4763     5.1215 H            1    LIG   0.0000
  63 H           -2.4078     1.7672     4.6274 H            1    LIG   0.0000
  64 H           -1.3661     1.4534     2.4915 H            1    LIG   0.0000
@<TRIPOS>BOND
   1        1        2 1
   2        2        3 ar
   3        3        4 ar
   4        4        5 ar
   5        5        6 ar
   6        6        7 1
   7        7        8 1
   8        8        9 1
   9        9       10 1
  10       10       11 1
  11       11       12 ar
  12       12       13 ar
  13       13       14 ar
  14       14       15 ar
  15       15       16 1
  16       15       17 ar
  17       17       11 ar
  18       10       18 2
  19       18       19 1
  20       19       20 2
  21       20        9 1
  22       20       21 1
  23       21       22 1
  24       21       23 1
  25       23       24 1
  26       23       25 1
  27       25       26 ar
  28       26       27 ar
  29       27       28 ar
  30       28       29 1
  31       29       30 1
  32       29       31 2
  33       29       32 2
  34       28       33 ar
  35       33       34 ar
  36       34       25 ar
  37        6       35 ar
  38       35        2 ar
  39       23       36 1
  40        1       37 1
  41        1       38 1
  42        1       39 1
  43        3       40 1
  44        4       41 1
  45        5       42 1
  46        7       43 1
  47        7       44 1
  48        8       45 1
  49        8       46 1
  50       12       47 1
  51       13       48 1
  52       14       49 1
  53       16       50 1
  54       16       51 1
  55       16       52 1
  56       22       53 1
  57       22       54 1
  58       22       55 1
  59       24       56 1
  60       24       57 1
  61       24       58 1
  62       26       59 1
  63       27       60 1
  64       30       61 1
  65       30       62 1
  66       33       63 1
  67       34       64 1

@<TRIPOS>MOLECULE

  64   67
SMALL
USER_CHARGES
@<TRIPOS>ATOM
   1 C1          -6.3257    -0.5976     0.7790 C.3          1    LIG   0.0000
   2 C2          -5.3328    -1.2259    -0.1885 C.ar         1    LIG   0.0000
   3 C3          -5.7540    -2.3158    -0.9437 C.ar         1    LIG   0.0000
   4 C4          -4.8657    -2.9051    -1.8371 C.ar         1    LIG   0.0000
   5 C5          -3.5740    -2.4047    -1.9651 C.ar         1    LIG   0.0000
   6 C6          -3.1907    -1.3131    -1.1913 C.ar         1    LIG   0.0000
   7 C7          -1.7732    -0.7795    -1.3452 C.3          1    LIG   0.0000
   8 C8          -1.0507    -0.8686    -0.0109 C.3          1    LIG   0.0000
   9 N9           0.0969     0.0481    -0.0133 N.pl3        1    LIG   0.0000
  10 C10          1.4071    -0.3124    -0.0293 C.2          1    LIG   0.0000
  11 C11          1.9417    -1.6619    -0.0557 C.ar         1    LIG   0.0000
  12 C12          3.1815    -1.8933     0.5322 C.ar         1    LIG   0.0000
  13 C13          3.7113    -3.1798     0.5161 C.ar         1    LIG   0.0000
  14 C14          3.0038    -4.2152    -0.0824 C.ar         1    LIG   0.0000
  15 C15          1.7657    -3.9467    -0.6592 C.ar         1    LIG   0.0000
  16 C16          1.0066    -5.0940    -1.3103 C.3          1    LIG   0.0000
  17 N17          1.2866    -2.6903    -0.6254 N.ar         1    LIG   0.0000
  18 N18          2.0962     0.7986    -0.0261 N.2          1    LIG   0.0000
  19 N19          1.2800     1.8369     0.0092 N.2          1    LIG   0.0000
  20 C20          0.0401     1.4086     0.0104 C.2          1    LIG   0.0000
  21 N21         -1.1148     2.1984     0.0321 N.pl3        1    LIG   0.0000
  22 C22         -1.0026     3.6639     0.0569 C.3          1    LIG   0.0000
  23 C23         -2.4402     1.5627     0.0303 C.3          1    LIG   0.0000
  24 C24         -3.3030     2.1931    -1.0507 C.3          1    LIG   0.0000
  25 C25         -3.0994     1.7619     1.3849 C.ar         1    LIG   0.0000
  26 C26         -4.4593     2.0473     1.4526 C.ar         1    LIG   0.0000
  27 C27         -5.0708     2.2309     2.6882 C.ar         1    LIG   0.0000
  28 C28         -4.3065     2.1256     3.8458 C.ar         1    LIG   0.0000
  29 S29         -5.0666     2.3532     5.3945 S.o2         1    LIG   0.0000
  30 N30         -4.9933     3.9277     5.8096 N.3          1    LIG   0.0000
  31 O31         -6.4441     1.9405     5.3184 O.2          1    LIG   0.0000
  32 O32         -4.3830     1.5631     6.3854 O.2          1    LIG   0.0000
  33 C33         -2.9459     1.8404     3.7877 C.ar         1    LIG   0.0000
  34 C34         -2.3433     1.6585     2.5473 C.ar         1    LIG   0.0000
  35 N35         -4.0771    -0.7683    -0.3385 N.ar         1    LIG   0.0000
  36 H           -2.3404     0.5844    -0.1512 H            1    LIG   0.0000
  37 H           -7.1946    -1.0904     0.7317 H            1    LIG   0.0000
  38 H           -5.9631    -0.6499     1.7095 H            1    LIG   0.0000
  39 H           -6.4718     0.3602     0.5315 H            1    LIG   0.0000
  40 H           -6.6836    -2.6710    -0.8454 H            1    LIG   0.0000
  41 H           -5.1555    -3.6883    -2.3872 H            1    LIG   0.0000
  42 H           -2.9294    -2.8238    -2.6045 H            1    LIG   0.0000
  43 H           -1.8067     0.1745    -1.6430 H            1    LIG   0.0000
  44 H           -1.2840    -1.3243    -2.0262 H            1    LIG   0.0000
  45 H           -1.6781    -0.6154     0.7255 H            1    LIG   0.0000
  46 H           -0.7292    -1.8047     0.1322 H            1    LIG   0.0000
  47 H            3.6857    -1.1439     0.9613 H            1    LIG   0.0000
  48 H            4.6013    -3.3593     0.9352 H            1    LIG   0.0000
  49 H            3.3795    -5.1418    -0.0986 H            1    LIG   0.0000
  50 H            1.5380    -5.9368    -1.2241 H            1    LIG   0.0000
  51 H            0.1230    -5.2092    -0.8564 H            1    LIG   0.0000
  52 H            0.8600    -4.8900    -2.2782 H            1    LIG   0.0000
  53 H           -1.9172     4.0681     0.0703 H            1    LIG   0.0000
  54 H           -0.5014     3.9461     0.8750 H            1    LIG   0.0000
  55 H           -0.5128     3.9746    -0.7577 H            1    LIG   0.0000
  56 H           -4.2046     1.7606    -1.0520 H            1    LIG   0.0000
  57 H           -3.4028     3.1714    -0.8692 H            1    LIG   0.0000
  58 H           -2.8692     2.0620    -1.9421 H            1    LIG   0.0000
  59 H           -4.9973     2.1205     0.6128 H            1    LIG   0.0000
  60 H           -6.0479     2.4360     2.7439 H            1    LIG   0.0000
  61 H           -4.0367     4.2142     5.8625 H            1    LIG   0.0000
  62 H           -5.4680     4.4763     5.1215 H            1    LIG   0.0000
  63 H           -2.4078     1.7672     4.6274 H            1    LIG   0.0000
  64 H           -1.3661     1.4534     2.4915 H            1    LIG   0.0000
@<TRIPOS>BOND
   1        1        2 1
   2        2        3 ar
   3        3        4 ar
   4        4        5 ar
   5        5        6 ar
   6        6        7 1
   7        7        8 1
   8        8        9 1
   9        9       10 1
  10       10       11 1
  11       11       12 ar
  12       12       13 ar
  13       13       14 ar
  14       14       15 ar
  15       15       16 1
  16       15       17 ar
  17       17       11 ar
  18       10       18 2
  19       18       19 1
  20       19       20 2
  21       20        9 1
  22       20       21 1
  23       21       22 1
  24       21       23 1
  25       23       24 1
  26       23       25 1
  27       25       26 ar
  28       26       27 ar
  29       27       28 ar
  30       28       29 1
  31       29       30 1
  32       29       31 2
  33       29       32 2
  34       28       33 ar
  35       33       34 ar
  36       34       25 ar
  37        6       35 ar
  38       35        2 ar
  39       23       36 1
  40        1       37 1
  41        1       38 1
  42        1       39 1
  43        3       40 1
  44        4       41 1
  45        5       42 1
  46        7       43 1
  47        7       44 1
  48        8       45 1
  49        8       46 1
  50       12       47 1
  51       13       48 1
  52       14       49 1
  53       16       50 1
  54       16       51 1
  55       16       52 1
  56       22       53 1
  57       22       54 1
  58       22       55 1
  59       24       56 1
  60       24       57 1
  61       24       58 1
  62       26       59 1
  63       27       60 1
  64       30       61 1
  65       30       62 1
  66       33       63 1
  67       34       64 1

@<TRIPOS>MOLECULE

  64   67
SMALL
USER_CHARGES
@<TRIPOS>ATOM
   1 C1          -5.9944    -2.6605    -3.3235 C.3          1    LIG   0.0000
   2 C2          -5.1774    -2.1973    -2.1258 C.ar         1    LIG   0.0000
   3 C3          -5.7614    -2.2738    -0.8653 C.ar         1    LIG   0.0000
   4 C4          -5.0334    -1.8593     0.2450 C.ar         1    LIG   0.0000
   5 C5          -3.7392    -1.3742     0.0864 C.ar         1    LIG   0.0000
   6 C6          -3.1907    -1.3131    -1.1913 C.ar         1    LIG   0.0000
   7 C7          -1.7732    -0.7795    -1.3452 C.3          1    LIG   0.0000
   8 C8          -1.0507    -0.8686    -0.0109 C.3          1    LIG   0.0000
   9 N9           0.0969     0.0481    -0.0133 N.pl3        1    LIG   0.0000
  10 C10          1.4071    -0.3124    -0.0293 C.2          1    LIG   0.0000
  11 C11          1.9417    -1.6619    -0.0557 C.ar         1    LIG   0.0000
  12 C12          1.1885    -2.6592    -0.6677 C.ar         1    LIG   0.0000
  13 C13          1.6832    -3.9592    -0.7022 C.ar         1    LIG   0.0000
  14 C14          2.9156    -4.2492    -0.1296 C.ar         1    LIG   0.0000
  15 C15          3.6419    -3.2257     0.4724 C.ar         1    LIG   0.0000
  16 C16          4.9894    -3.5637     1.0944 C.3          1    LIG   0.0000
  17 N17          3.1307    -1.9817     0.4876 N.ar         1    LIG   0.0000
  18 N18          2.0962     0.7986    -0.0261 N.2          1    LIG   0.0000
  19 N19          1.2800     1.8369     0.0092 N.2          1    LIG   0.0000
  20 C20          0.0401     1.4086     0.0104 C.2          1    LIG   0.0000
  21 N21         -1.1148     2.1984     0.0321 N.pl3        1    LIG   0.0000
  22 C22         -1.0026     3.6639     0.0569 C.3          1    LIG   0.0000
  23 C23         -2.4402     1.5627     0.0303 C.3          1    LIG   0.0000
  24 C24         -3.3030     2.1931    -1.0507 C.3          1    LIG   0.0000
  25 C25         -3.0994     1.7619     1.3849 C.ar         1    LIG   0.0000
  26 C26         -2.3950     1.4544     2.5444 C.ar         1    LIG   0.0000
  27 C27         -2.9908     1.6340     3.7883 C.ar         1    LIG   0.0000
  28 C28         -4.2918     2.1218     3.8535 C.ar         1    LIG   0.0000
  29 S29         -5.0416     2.3494     5.4072 S.o2         1    LIG   0.0000
  30 N30         -5.8171     0.9832     5.8417 N.3          1    LIG   0.0000
  31 O31         -4.0325     2.6606     6.3862 O.2          1    LIG   0.0000
  32 O32         -5.9861     3.4337     5.3301 O.2          1    LIG   0.0000
  33 C33         -5.0040     2.4320     2.6990 C.ar         1    LIG   0.0000
  34 C34         -4.3998     2.2491     1.4596 C.ar         1    LIG   0.0000
  35 N35         -3.9240    -1.7236    -2.2418 N.ar         1    LIG   0.0000
  36 H           -2.3404     0.5844    -0.1512 H            1    LIG   0.0000
  37 H           -6.8926    -2.9726    -3.0137 H            1    LIG   0.0000
  38 H           -6.1080    -1.9006    -3.9635 H            1    LIG   0.0000
  39 H           -5.5194    -3.4128    -3.7802 H            1    LIG   0.0000
  40 H           -6.6926    -2.6222    -0.7590 H            1    LIG   0.0000
  41 H           -5.4403    -1.9100     1.1571 H            1    LIG   0.0000
  42 H           -3.2101    -1.0734     0.8798 H            1    LIG   0.0000
  43 H           -1.8067     0.1745    -1.6430 H            1    LIG   0.0000
  44 H           -1.2840    -1.3243    -2.0262 H            1    LIG   0.0000
  45 H           -1.6781    -0.6154     0.7255 H            1    LIG   0.0000
  46 H           -0.7292    -1.8047     0.1322 H            1    LIG   0.0000
  47 H            0.3022    -2.4441    -1.0779 H            1    LIG   0.0000
  48 H            1.1517    -4.6850    -1.1391 H            1    LIG   0.0000
  49 H            3.2763    -5.1817    -0.1499 H            1    LIG   0.0000
  50 H            5.1777    -4.5382     0.9727 H            1    LIG   0.0000
  51 H            5.7061    -3.0274     0.6487 H            1    LIG   0.0000
  52 H            4.9695    -3.3474     2.0706 H            1    LIG   0.0000
  53 H           -1.9172     4.0681     0.0703 H            1    LIG   0.0000
  54 H           -0.5014     3.9461     0.8750 H            1    LIG   0.0000
  55 H           -0.5128     3.9746    -0.7577 H            1    LIG   0.0000
  56 H           -4.2046     1.7606    -1.0520 H            1    LIG   0.0000
  57 H           -3.4028     3.1714    -0.8692 H            1    LIG   0.0000
  58 H           -2.8692     2.0620    -1.9421 H            1    LIG   0.0000
  59 H           -1.4603     1.1043     2.4836 H            1    LIG   0.0000
  60 H           -2.4898     1.4151     4.6257 H            1    LIG   0.0000
  61 H           -6.5179     0.7671     5.1619 H            1    LIG   0.0000
  62 H           -5.1612     0.2302     5.8952 H            1    LIG   0.0000
  63 H           -5.9387     2.7823     2.7597 H            1    LIG   0.0000
  64 H           -4.9005     2.4679     0.6221 H            1    LIG   0.0000
@<TRIPOS>BOND
   1        1        2 1
   2        2        3 ar
   3        3        4 ar
   4        4        5 ar
   5        5        6 ar
   6        6        7 1
   7        7        8 1
   8        8        9 1
   9        9       10 1
  10       10       11 1
  11       11       12 ar
  12       12       13 ar
  13       13       14 ar
  14       14       15 ar
  15       15       16 1
  16       15       17 ar
  17       17       11 ar
  18       10       18 2
  19       18       19 1
  20       19       20 2
  21       20        9 1
  22       20       21 1
  23       21       22 1
  24       21       23 1
  25       23       24 1
  26       23       25 1
  27       25       26 ar
  28       26       27 ar
  29       27       28 ar
  30       28       29 1
  31       29       30 1
  32       29       31 2
  33       29       32 2
  34       28       33 ar
  35       33       34 ar
  36       34       25 ar
  37        6       35 ar
  38       35        2 ar
  39       23       36 1
  40        1       37 1
  41        1       38 1
  42        1       39 1
  43        3       40 1
  44        4       41 1
  45        5       42 1
  46        7       43 1
  47        7       44 1
  48        8       45 1
  49        8       46 1
  50       12       47 1
  51       13       48 1
  52       14       49 1
  53       16       50 1
  54       16       51 1
  55       16       52 1
  56       22       53 1
  57       22       54 1
  58       22       55 1
  59       24       56 1
  60       24       57 1
  61       24       58 1
  62       26       59 1
  63       27       60 1
  64       30       61 1
  65       30       62 1
  66       33       63 1
  67       34       64 1

@<TRIPOS>MOLECULE

  64   67
SMALL
USER_CHARGES
@<TRIPOS>ATOM
   1 C1          -4.8906    -3.9094    -1.0192 C.3          1    LIG   0.0000
   2 C2          -4.2455    -3.4285     0.2728 C.ar         1    LIG   0.0000
   3 C3          -4.7727    -3.8835     1.4772 C.ar         1    LIG   0.0000
   4 C4          -4.1982    -3.4606     2.6712 C.ar         1    LIG   0.0000
   5 C5          -3.1117    -2.5920     2.6507 C.ar         1    LIG   0.0000
   6 C6          -2.6137    -2.1591     1.4252 C.ar         1    LIG   0.0000
   7 C7          -1.4243    -1.2089     1.4227 C.3          1    LIG   0.0000
   8 C8          -1.0507    -0.8686    -0.0109 C.3          1    LIG   0.0000
   9 N9           0.0969     0.0481    -0.0133 N.pl3        1    LIG   0.0000
  10 C10          1.4071    -0.3124    -0.0293 C.2          1    LIG   0.0000
  11 C11          1.9417    -1.6619    -0.0557 C.ar         1    LIG   0.0000
  12 C12          3.3234    -1.8251    -0.0818 C.ar         1    LIG   0.0000
  13 C13          3.8550    -3.1106    -0.1086 C.ar         1    LIG   0.0000
  14 C14          3.0087    -4.2127    -0.1092 C.ar         1    LIG   0.0000
  15 C15          1.6317    -4.0111    -0.0810 C.ar         1    LIG   0.0000
  16 C16          0.7215    -5.2310    -0.0828 C.3          1    LIG   0.0000
  17 N17          1.1547    -2.7537    -0.0571 N.ar         1    LIG   0.0000
  18 N18          2.0962     0.7986    -0.0261 N.2          1    LIG   0.0000
  19 N19          1.2800     1.8369     0.0092 N.2          1    LIG   0.0000
  20 C20          0.0401     1.4086     0.0104 C.2          1    LIG   0.0000
  21 N21         -1.1148     2.1984     0.0321 N.pl3        1    LIG   0.0000
  22 C22         -1.0026     3.6639     0.0569 C.3          1    LIG   0.0000
  23 C23         -2.4402     1.5627     0.0303 C.3          1    LIG   0.0000
  24 C24         -2.7992     1.1438    -1.3861 C.3          1    LIG   0.0000
  25 C25         -3.4757     2.5488     0.5448 C.ar         1    LIG   0.0000
  26 C26         -4.7271     2.6099    -0.0599 C.ar         1    LIG   0.0000
  27 C27         -5.6808     3.5093     0.4048 C.ar         1    LIG   0.0000
  28 C28         -5.3654     4.3401     1.4751 C.ar         1    LIG   0.0000
  29 S29         -6.5552     5.4664     2.0613 S.o2         1    LIG   0.0000
  30 N30         -7.4502     4.7555     3.2234 N.3          1    LIG   0.0000
  31 O31         -5.8935     6.6237     2.6056 O.2          1    LIG   0.0000
  32 O32         -7.4110     5.8692     0.9754 O.2          1    LIG   0.0000
  33 C33         -4.1164     4.2858     2.0860 C.ar         1    LIG   0.0000
  34 C34         -3.1692     3.3831     1.6141 C.ar         1    LIG   0.0000
  35 N35         -3.1943    -2.5898     0.2906 N.ar         1    LIG   0.0000
  36 H           -2.4242     0.7569     0.6223 H            1    LIG   0.0000
  37 H           -5.6511    -4.5221    -0.8041 H            1    LIG   0.0000
  38 H           -5.2316    -3.1230    -1.5343 H            1    LIG   0.0000
  39 H           -4.2131    -4.3989    -1.5680 H            1    LIG   0.0000
  40 H           -5.5547    -4.5067     1.4843 H            1    LIG   0.0000
  41 H           -4.5661    -3.7808     3.5442 H            1    LIG   0.0000
  42 H           -2.6940    -2.2828     3.5050 H            1    LIG   0.0000
  43 H           -0.6471    -1.6465     1.8748 H            1    LIG   0.0000
  44 H           -1.6661    -0.3709     1.9120 H            1    LIG   0.0000
  45 H           -0.8089    -1.7066    -0.5002 H            1    LIG   0.0000
  46 H           -1.8279    -0.4310    -0.4630 H            1    LIG   0.0000
  47 H            3.9271    -1.0279    -0.0813 H            1    LIG   0.0000
  48 H            4.8462    -3.2415    -0.1274 H            1    LIG   0.0000
  49 H            3.3843    -5.1393    -0.1297 H            1    LIG   0.0000
  50 H            1.2777    -6.0618    -0.1024 H            1    LIG   0.0000
  51 H            0.1572    -5.2270     0.7428 H            1    LIG   0.0000
  52 H            0.1316    -5.2056    -0.8899 H            1    LIG   0.0000
  53 H           -1.9172     4.0681     0.0703 H            1    LIG   0.0000
  54 H           -0.5014     3.9461     0.8750 H            1    LIG   0.0000
  55 H           -0.5128     3.9746    -0.7577 H            1    LIG   0.0000
  56 H           -3.7009     0.7114    -1.3873 H            1    LIG   0.0000
  57 H           -2.8152     1.9496    -1.9781 H            1    LIG   0.0000
  58 H           -2.1178     0.4949    -1.7246 H            1    LIG   0.0000
  59 H           -4.9409     2.0072    -0.8286 H            1    LIG   0.0000
  60 H           -6.5823     3.5582    -0.0252 H            1    LIG   0.0000
  61 H           -7.9098     3.9518     2.8454 H            1    LIG   0.0000
  62 H           -6.8560     4.4758     3.9775 H            1    LIG   0.0000
  63 H           -3.9024     4.8884     2.8548 H            1    LIG   0.0000
  64 H           -2.2676     3.3341     2.0440 H            1    LIG   0.0000
@<TRIPOS>BOND
   1        1        2 1
   2        2        3 ar
   3        3        4 ar
   4        4        5 ar
   5        5        6 ar
   6        6        7 1
   7        7        8 1
   8        8        9 1
   9        9       10 1
  10       10       11 1
  11       11       12 ar
  12       12       13 ar
  13       13       14 ar
  14       14       15 ar
  15       15       16 1
  16       15       17 ar
  17       17       11 ar
  18       10       18 2
  19       18       19 1
  20       19       20 2
  21       20        9 1
  22       20       21 1
  23       21       22 1
  24       21       23 1
  25       23       24 1
  26       23       25 1
  27       25       26 ar
  28       26       27 ar
  29       27       28 ar
  30       28       29 1
  31       29       30 1
  32       29       31 2
  33       29       32 2
  34       28       33 ar
  35       33       34 ar
  36       34       25 ar
  37        6       35 ar
  38       35        2 ar
  39       23       36 1
  40        1       37 1
  41        1       38 1
  42        1       39 1
  43        3       40 1
  44        4       41 1
  45        5       42 1
  46        7       43 1
  47        7       44 1
  48        8       45 1
  49        8       46 1
  50       12       47 1
  51       13       48 1
  52       14       49 1
  53       16       50 1
  54       16       51 1
  55       16       52 1
  56       22       53 1
  57       22       54 1
  58       22       55 1
  59       24       56 1
  60       24       57 1
  61       24       58 1
  62       26       59 1
  63       27       60 1
  64       30       61 1
  65       30       62 1
  66       33       63 1
  67       34       64 1

@<TRIPOS>MOLECULE

  64   67
SMALL
USER_CHARGES
@<TRIPOS>ATOM
   1 C1          -6.3825    -2.0353     1.4837 C.3          1    LIG   0.0000
   2 C2          -4.9487    -2.5452     1.4553 C.ar         1    LIG   0.0000
   3 C3          -4.7429    -3.9209     1.4300 C.ar         1    LIG   0.0000
   4 C4          -3.4416    -4.4110     1.4007 C.ar         1    LIG   0.0000
   5 C5          -2.3662    -3.5285     1.3989 C.ar         1    LIG   0.0000
   6 C6          -2.6137    -2.1591     1.4252 C.ar         1    LIG   0.0000
   7 C7          -1.4243    -1.2089     1.4227 C.3          1    LIG   0.0000
   8 C8          -1.0507    -0.8686    -0.0109 C.3          1    LIG   0.0000
   9 N9           0.0969     0.0481    -0.0133 N.pl3        1    LIG   0.0000
  10 C10          1.4071    -0.3124    -0.0293 C.2          1    LIG   0.0000
  11 C11          1.9417    -1.6619    -0.0557 C.ar         1    LIG   0.0000
  12 C12          1.0909    -2.7161     0.2627 C.ar         1    LIG   0.0000
  13 C13          1.5848    -4.0167     0.2442 C.ar         1    LIG   0.0000
  14 C14          2.9132    -4.2509    -0.0893 C.ar         1    LIG   0.0000
  15 C15          3.7345    -3.1719    -0.4038 C.ar         1    LIG   0.0000
  16 C16          5.1866    -3.4491    -0.7659 C.3          1    LIG   0.0000
  17 N17          3.2219    -1.9288    -0.3737 N.ar         1    LIG   0.0000
  18 N18          2.0962     0.7986    -0.0261 N.2          1    LIG   0.0000
  19 N19          1.2800     1.8369     0.0092 N.2          1    LIG   0.0000
  20 C20          0.0401     1.4086     0.0104 C.2          1    LIG   0.0000
  21 N21         -1.1148     2.1984     0.0321 N.pl3        1    LIG   0.0000
  22 C22         -1.0026     3.6639     0.0569 C.3          1    LIG   0.0000
  23 C23         -2.4402     1.5627     0.0303 C.3          1    LIG   0.0000
  24 C24         -2.7992     1.1438    -1.3861 C.3          1    LIG   0.0000
  25 C25         -3.4757     2.5488     0.5448 C.ar         1    LIG   0.0000
  26 C26         -4.7271     2.6099    -0.0599 C.ar         1    LIG   0.0000
  27 C27         -5.6808     3.5093     0.4048 C.ar         1    LIG   0.0000
  28 C28         -5.3654     4.3401     1.4751 C.ar         1    LIG   0.0000
  29 S29         -6.5552     5.4664     2.0613 S.o2         1    LIG   0.0000
  30 N30         -7.4502     4.7555     3.2234 N.3          1    LIG   0.0000
  31 O31         -5.8935     6.6237     2.6056 O.2          1    LIG   0.0000
  32 O32         -7.4110     5.8692     0.9754 O.2          1    LIG   0.0000
  33 C33         -4.1164     4.2858     2.0860 C.ar         1    LIG   0.0000
  34 C34         -3.1692     3.3831     1.6141 C.ar         1    LIG   0.0000
  35 N35         -3.8856    -1.7214     1.4522 N.ar         1    LIG   0.0000
  36 H           -2.4242     0.7569     0.6223 H            1    LIG   0.0000
  37 H           -7.0126    -2.8119     1.4812 H            1    LIG   0.0000
  38 H           -6.5267    -1.4917     2.3105 H            1    LIG   0.0000
  39 H           -6.5503    -1.4674     0.6779 H            1    LIG   0.0000
  40 H           -5.5208    -4.5494     1.4329 H            1    LIG   0.0000
  41 H           -3.2791    -5.3975     1.3810 H            1    LIG   0.0000
  42 H           -1.4278    -3.8734     1.3789 H            1    LIG   0.0000
  43 H           -0.6471    -1.6465     1.8748 H            1    LIG   0.0000
  44 H           -1.6661    -0.3709     1.9120 H            1    LIG   0.0000
  45 H           -0.8089    -1.7066    -0.5002 H            1    LIG   0.0000
  46 H           -1.8279    -0.4310    -0.4630 H            1    LIG   0.0000
  47 H            0.1359    -2.5409     0.5020 H            1    LIG   0.0000
  48 H            0.9837    -4.7830     0.4710 H            1    LIG   0.0000
  49 H            3.2748    -5.1832    -0.1033 H            1    LIG   0.0000
  50 H            5.3577    -4.4336    -0.7273 H            1    LIG   0.0000
  51 H            5.3691    -3.1151    -1.6906 H            1    LIG   0.0000
  52 H            5.7870    -2.9808    -0.1177 H            1    LIG   0.0000
  53 H           -1.9172     4.0681     0.0703 H            1    LIG   0.0000
  54 H           -0.5014     3.9461     0.8750 H            1    LIG   0.0000
  55 H           -0.5128     3.9746    -0.7577 H            1    LIG   0.0000
  56 H           -3.7009     0.7114    -1.3873 H            1    LIG   0.0000
  57 H           -2.8152     1.9496    -1.9781 H            1    LIG   0.0000
  58 H           -2.1178     0.4949    -1.7246 H            1    LIG   0.0000
  59 H           -4.9409     2.0072    -0.8286 H            1    LIG   0.0000
  60 H           -6.5823     3.5582    -0.0252 H            1    LIG   0.0000
  61 H           -7.9098     3.9518     2.8454 H            1    LIG   0.0000
  62 H           -6.8560     4.4758     3.9775 H            1    LIG   0.0000
  63 H           -3.9024     4.8884     2.8548 H            1    LIG   0.0000
  64 H           -2.2676     3.3341     2.0440 H            1    LIG   0.0000
@<TRIPOS>BOND
   1        1        2 1
   2        2        3 ar
   3        3        4 ar
   4        4        5 ar
   5        5        6 ar
   6        6        7 1
   7        7        8 1
   8        8        9 1
   9        9       10 1
  10       10       11 1
  11       11       12 ar
  12       12       13 ar
  13       13       14 ar
  14       14       15 ar
  15       15       16 1
  16       15       17 ar
  17       17       11 ar
  18       10       18 2
  19       18       19 1
  20       19       20 2
  21       20        9 1
  22       20       21 1
  23       21       22 1
  24       21       23 1
  25       23       24 1
  26       23       25 1
  27       25       26 ar
  28       26       27 ar
  29       27       28 ar
  30       28       29 1
  31       29       30 1
  32       29       31 2
  33       29       32 2
  34       28       33 ar
  35       33       34 ar
  36       34       25 ar
  37        6       35 ar
  38       35        2 ar
  39       23       36 1
  40        1       37 1
  41        1       38 1
  42        1       39 1
  43        3       40 1
  44        4       41 1
  45        5       42 1
  46        7       43 1
  47        7       44 1
  48        8       45 1
  49        8       46 1
  50       12       47 1
  51       13       48 1
  52       14       49 1
  53       16       50 1
  54       16       51 1
  55       16       52 1
  56       22       53 1
  57       22       54 1
  58       22       55 1
  59       24       56 1
  60       24       57 1
  61       24       58 1
  62       26       59 1
  63       27       60 1
  64       30       61 1
  65       30       62 1
  66       33       63 1
  67       34       64 1

@<TRIPOS>MOLECULE

  64   67
SMALL
USER_CHARGES
@<TRIPOS>ATOM
   1 C1          -3.9600    -4.7595     3.9194 C.3          1    LIG   0.0000
   2 C2          -3.4353    -4.1631     2.6210 C.ar         1    LIG   0.0000
   3 C3          -3.7250    -4.8248     1.4320 C.ar         1    LIG   0.0000
   4 C4          -3.2591    -4.2976     0.2322 C.ar         1    LIG   0.0000
   5 C5          -2.5121    -3.1240     0.2321 C.ar         1    LIG   0.0000
   6 C6          -2.2432    -2.4921     1.4427 C.ar         1    LIG   0.0000
   7 C7          -1.4243    -1.2089     1.4227 C.3          1    LIG   0.0000
   8 C8          -1.0507    -0.8686    -0.0109 C.3          1    LIG   0.0000
   9 N9           0.0969     0.0481    -0.0133 N.pl3        1    LIG   0.0000
  10 C10          1.4071    -0.3124    -0.0293 C.2          1    LIG   0.0000
  11 C11          1.9417    -1.6619    -0.0557 C.ar         1    LIG   0.0000
  12 C12          2.1637    -2.2607    -1.2921 C.ar         1    LIG   0.0000
  13 C13          2.6744    -3.5542    -1.3383 C.ar         1    LIG   0.0000
  14 C14          2.9564    -4.2325    -0.1588 C.ar         1    LIG   0.0000
  15 C15          2.7231    -3.6012     1.0597 C.ar         1    LIG   0.0000
  16 C16          3.0378    -4.3610     2.3404 C.3          1    LIG   0.0000
  17 N17          2.2273    -2.3509     1.0646 N.ar         1    LIG   0.0000
  18 N18          2.0962     0.7986    -0.0261 N.2          1    LIG   0.0000
  19 N19          1.2800     1.8369     0.0092 N.2          1    LIG   0.0000
  20 C20          0.0401     1.4086     0.0104 C.2          1    LIG   0.0000
  21 N21         -1.1148     2.1984     0.0321 N.pl3        1    LIG   0.0000
  22 C22         -1.0026     3.6639     0.0569 C.3          1    LIG   0.0000
  23 C23         -2.4402     1.5627     0.0303 C.3          1    LIG   0.0000
  24 C24         -2.7992     1.1438    -1.3861 C.3          1    LIG   0.0000
  25 C25         -3.4757     2.5488     0.5448 C.ar         1    LIG   0.0000
  26 C26         -4.7271     2.6099    -0.0599 C.ar         1    LIG   0.0000
  27 C27         -5.6808     3.5093     0.4048 C.ar         1    LIG   0.0000
  28 C28         -5.3654     4.3401     1.4751 C.ar         1    LIG   0.0000
  29 S29         -6.5552     5.4664     2.0613 S.o2         1    LIG   0.0000
  30 N30         -7.4502     4.7555     3.2234 N.3          1    LIG   0.0000
  31 O31         -5.8935     6.6237     2.6056 O.2          1    LIG   0.0000
  32 O32         -7.4110     5.8692     0.9754 O.2          1    LIG   0.0000
  33 C33         -4.1164     4.2858     2.0860 C.ar         1    LIG   0.0000
  34 C34         -3.1692     3.3831     1.6141 C.ar         1    LIG   0.0000
  35 N35         -2.7109    -3.0306     2.5834 N.ar         1    LIG   0.0000
  36 H           -2.4242     0.7569     0.6223 H            1    LIG   0.0000
  37 H           -4.4698    -5.5963     3.7197 H            1    LIG   0.0000
  38 H           -3.1916    -4.9732     4.5226 H            1    LIG   0.0000
  39 H           -4.5635    -4.1008     4.3688 H            1    LIG   0.0000
  40 H           -4.2614    -5.6688     1.4399 H            1    LIG   0.0000
  41 H           -3.4610    -4.7620    -0.6301 H            1    LIG   0.0000
  42 H           -2.1729    -2.7394    -0.6265 H            1    LIG   0.0000
  43 H           -0.5924    -1.3359     1.9628 H            1    LIG   0.0000
  44 H           -1.9642    -0.4628     1.8124 H            1    LIG   0.0000
  45 H           -0.8089    -1.7066    -0.5002 H            1    LIG   0.0000
  46 H           -1.8279    -0.4310    -0.4630 H            1    LIG   0.0000
  47 H            1.9587    -1.7673    -2.1373 H            1    LIG   0.0000
  48 H            2.8386    -3.9956    -2.2204 H            1    LIG   0.0000
  49 H            3.3224    -5.1627    -0.1850 H            1    LIG   0.0000
  50 H            3.3946    -5.2667     2.1115 H            1    LIG   0.0000
  51 H            3.7217    -3.8568     2.8676 H            1    LIG   0.0000
  52 H            2.2038    -4.4588     2.8835 H            1    LIG   0.0000
  53 H           -1.9172     4.0681     0.0703 H            1    LIG   0.0000
  54 H           -0.5014     3.9461     0.8750 H            1    LIG   0.0000
  55 H           -0.5128     3.9746    -0.7577 H            1    LIG   0.0000
  56 H           -3.7009     0.7114    -1.3873 H            1    LIG   0.0000
  57 H           -2.8152     1.9496    -1.9781 H            1    LIG   0.0000
  58 H           -2.1178     0.4949    -1.7246 H            1    LIG   0.0000
  59 H           -4.9409     2.0072    -0.8286 H            1    LIG   0.0000
  60 H           -6.5823     3.5582    -0.0252 H            1    LIG   0.0000
  61 H           -7.9098     3.9518     2.8454 H            1    LIG   0.0000
  62 H           -6.8560     4.4758     3.9775 H            1    LIG   0.0000
  63 H           -3.9024     4.8884     2.8548 H            1    LIG   0.0000
  64 H           -2.2676     3.3341     2.0440 H            1    LIG   0.0000
@<TRIPOS>BOND
   1        1        2 1
   2        2        3 ar
   3        3        4 ar
   4        4        5 ar
   5        5        6 ar
   6        6        7 1
   7        7        8 1
   8        8        9 1
   9        9       10 1
  10       10       11 1
  11       11       12 ar
  12       12       13 ar
  13       13       14 ar
  14       14       15 ar
  15       15       16 1
  16       15       17 ar
  17       17       11 ar
  18       10       18 2
  19       18       19 1
  20       19       20 2
  21       20        9 1
  22       20       21 1
  23       21       22 1
  24       21       23 1
  25       23       24 1
  26       23       25 1
  27       25       26 ar
  28       26       27 ar
  29       27       28 ar
  30       28       29 1
  31       29       30 1
  32       29       31 2
  33       29       32 2
  34       28       33 ar
  35       33       34 ar
  36       34       25 ar
  37        6       35 ar
  38       35        2 ar
  39       23       36 1
  40        1       37 1
  41        1       38 1
  42        1       39 1
  43        3       40 1
  44        4       41 1
  45        5       42 1
  46        7       43 1
  47        7       44 1
  48        8       45 1
  49        8       46 1
  50       12       47 1
  51       13       48 1
  52       14       49 1
  53       16       50 1
  54       16       51 1
  55       16       52 1
  56       22       53 1
  57       22       54 1
  58       22       55 1
  59       24       56 1
  60       24       57 1
  61       24       58 1
  62       26       59 1
  63       27       60 1
  64       30       61 1
  65       30       62 1
  66       33       63 1
  67       34       64 1

@<TRIPOS>MOLECULE

  64   67
SMALL
USER_CHARGES
@<TRIPOS>ATOM
   1 C1          -1.7278    -6.2186     1.7080 C.3          1    LIG   0.0000
   2 C2          -2.3829    -4.8511     1.5759 C.ar         1    LIG   0.0000
   3 C3          -3.7693    -4.7959     1.4734 C.ar         1    LIG   0.0000
   4 C4          -4.3913    -3.5576     1.3549 C.ar         1    LIG   0.0000
   5 C5          -3.6277    -2.3948     1.3382 C.ar         1    LIG   0.0000
   6 C6          -2.2432    -2.4921     1.4427 C.ar         1    LIG   0.0000
   7 C7          -1.4243    -1.2089     1.4227 C.3          1    LIG   0.0000
   8 C8          -1.0507    -0.8686    -0.0109 C.3          1    LIG   0.0000
   9 N9           0.0969     0.0481    -0.0133 N.pl3        1    LIG   0.0000
  10 C10          1.4071    -0.3124    -0.0293 C.2          1    LIG   0.0000
  11 C11          1.9417    -1.6619    -0.0557 C.ar         1    LIG   0.0000
  12 C12          1.8156    -2.4452     1.0876 C.ar         1    LIG   0.0000
  13 C13          2.3227    -3.7409     1.0824 C.ar         1    LIG   0.0000
  14 C14          2.9461    -4.2386    -0.0554 C.ar         1    LIG   0.0000
  15 C15          3.0525    -3.4268    -1.1811 C.ar         1    LIG   0.0000
  16 C16          3.7392    -3.9901    -2.4172 C.3          1    LIG   0.0000
  17 N17          2.5517    -2.1793    -1.1381 N.ar         1    LIG   0.0000
  18 N18          2.0962     0.7986    -0.0261 N.2          1    LIG   0.0000
  19 N19          1.2800     1.8369     0.0092 N.2          1    LIG   0.0000
  20 C20          0.0401     1.4086     0.0104 C.2          1    LIG   0.0000
  21 N21         -1.1148     2.1984     0.0321 N.pl3        1    LIG   0.0000
  22 C22         -1.0026     3.6639     0.0569 C.3          1    LIG   0.0000
  23 C23         -2.4402     1.5627     0.0303 C.3          1    LIG   0.0000
  24 C24         -2.7992     1.1438    -1.3861 C.3          1    LIG   0.0000
  25 C25         -3.4757     2.5488     0.5448 C.ar         1    LIG   0.0000
  26 C26         -4.7271     2.6099    -0.0599 C.ar         1    LIG   0.0000
  27 C27         -5.6808     3.5093     0.4048 C.ar         1    LIG   0.0000
  28 C28         -5.3654     4.3401     1.4751 C.ar         1    LIG   0.0000
  29 S29         -6.5552     5.4664     2.0613 S.o2         1    LIG   0.0000
  30 N30         -7.4502     4.7555     3.2234 N.3          1    LIG   0.0000
  31 O31         -5.8935     6.6237     2.6056 O.2          1    LIG   0.0000
  32 O32         -7.4110     5.8692     0.9754 O.2          1    LIG   0.0000
  33 C33         -4.1164     4.2858     2.0860 C.ar         1    LIG   0.0000
  34 C34         -3.1692     3.3831     1.6141 C.ar         1    LIG   0.0000
  35 N35         -1.6764    -3.7068     1.5568 N.ar         1    LIG   0.0000
  36 H           -2.4242     0.7569     0.6223 H            1    LIG   0.0000
  37 H           -2.4326    -6.9279     1.7004 H            1    LIG   0.0000
  38 H           -1.1010    -6.3632     0.9424 H            1    LIG   0.0000
  39 H           -1.2194    -6.2630     2.5680 H            1    LIG   0.0000
  40 H           -4.3117    -5.6360     1.4847 H            1    LIG   0.0000
  41 H           -5.3871    -3.5030     1.2817 H            1    LIG   0.0000
  42 H           -4.0677    -1.5009     1.2523 H            1    LIG   0.0000
  43 H           -0.5924    -1.3359     1.9628 H            1    LIG   0.0000
  44 H           -1.9642    -0.4628     1.8124 H            1    LIG   0.0000
  45 H           -0.8089    -1.7066    -0.5002 H            1    LIG   0.0000
  46 H           -1.8279    -0.4310    -0.4630 H            1    LIG   0.0000
  47 H            1.3660    -2.0811     1.9032 H            1    LIG   0.0000
  48 H            2.2384    -4.3140     1.8975 H            1    LIG   0.0000
  49 H            3.3137    -5.1685    -0.0653 H            1    LIG   0.0000
  50 H            4.0348    -4.9280    -2.2360 H            1    LIG   0.0000
  51 H            3.0992    -3.9848    -3.1856 H            1    LIG   0.0000
  52 H            4.5347    -3.4274    -2.6421 H            1    LIG   0.0000
  53 H           -1.9172     4.0681     0.0703 H            1    LIG   0.0000
  54 H           -0.5014     3.9461     0.8750 H            1    LIG   0.0000
  55 H           -0.5128     3.9746    -0.7577 H            1    LIG   0.0000
  56 H           -3.7009     0.7114    -1.3873 H            1    LIG   0.0000
  57 H           -2.8152     1.9496    -1.9781 H            1    LIG   0.0000
  58 H           -2.1178     0.4949    -1.7246 H            1    LIG   0.0000
  59 H           -4.9409     2.0072    -0.8286 H            1    LIG   0.0000
  60 H           -6.5823     3.5582    -0.0252 H            1    LIG   0.0000
  61 H           -7.9098     3.9518     2.8454 H            1    LIG   0.0000
  62 H           -6.8560     4.4758     3.9775 H            1    LIG   0.0000
  63 H           -3.9024     4.8884     2.8548 H            1    LIG   0.0000
  64 H           -2.2676     3.3341     2.0440 H            1    LIG   0.0000
@<TRIPOS>BOND
   1        1        2 1
   2        2        3 ar
   3        3        4 ar
   4        4        5 ar
   5        5        6 ar
   6        6        7 1
   7        7        8 1
   8        8        9 1
   9        9       10 1
  10       10       11 1
  11       11       12 ar
  12       12       13 ar
  13       13       14 ar
  14       14       15 ar
  15       15       16 1
  16       15       17 ar
  17       17       11 ar
  18       10       18 2
  19       18       19 1
  20       19       20 2
  21       20        9 1
  22       20       21 1
  23       21       22 1
  24       21       23 1
  25       23       24 1
  26       23       25 1
  27       25       26 ar
  28       26       27 ar
  29       27       28 ar
  30       28       29 1
  31       29       30 1
  32       29       31 2
  33       29       32 2
  34       28       33 ar
  35       33       34 ar
  36       34       25 ar
  37        6       35 ar
  38       35        2 ar
  39       23       36 1
  40        1       37 1
  41        1       38 1
  42        1       39 1
  43        3       40 1
  44        4       41 1
  45        5       42 1
  46        7       43 1
  47        7       44 1
  48        8       45 1
  49        8       46 1
  50       12       47 1
  51       13       48 1
  52       14       49 1
  53       16       50 1
  54       16       51 1
  55       16       52 1
  56       22       53 1
  57       22       54 1
  58       22       55 1
  59       24       56 1
  60       24       57 1
  61       24       58 1
  62       26       59 1
  63       27       60 1
  64       30       61 1
  65       30       62 1
  66       33       63 1
  67       34       64 1

