@<TRIPOS>MOLECULE
*****
 64 67 0 0 0
SMALL
USER_CHARGES

@<TRIPOS>ATOM
      1 C1         -6.2885   -1.8640   -3.2704 C.3     1  LIG1        0.0000
      2 C2         -5.3161   -1.8214   -2.1002 C.3     1  LIG1        0.0000
      3 C3         -5.7556   -2.2892   -0.8659 C.3     1  LIG1        0.0000
      4 C4         -4.8842   -2.2634    0.2179 C.3     1  LIG1        0.0000
      5 C5         -3.5922   -1.7724    0.0597 C.3     1  LIG1        0.0000
      6 C6         -3.1907   -1.3131   -1.1913 C.3     1  LIG1        0.0000
      7 C7         -1.7732   -0.7795   -1.3452 C.3     1  LIG1        0.0000
      8 C8         -1.0507   -0.8686   -0.0109 C.3     1  LIG1        0.0000
      9 N9          0.0969    0.0481   -0.0133 N.pl3   1  LIG1        0.0000
     10 C10         1.4071   -0.3124   -0.0293 C.2     1  LIG1        0.0000
     11 C11         1.9417   -1.6619   -0.0557 C.3     1  LIG1        0.0000
     12 C12         1.3951   -2.6063    0.8079 C.3     1  LIG1        0.0000
     13 C13         1.8947   -3.9049    0.7984 C.3     1  LIG1        0.0000
     14 C14         2.9274   -4.2458   -0.0665 C.3     1  LIG1        0.0000
     15 C15         3.4484   -3.2752   -0.9175 C.3     1  LIG1        0.0000
     16 C16         4.5795   -3.6682   -1.8569 C.3     1  LIG1        0.0000
     17 N17         2.9408   -2.0302   -0.8788 N.pl3   1  LIG1        0.0000
     18 N18         2.0962    0.7986   -0.0261 N.2     1  LIG1        0.0000
     19 N19         1.2800    1.8369    0.0092 N.2     1  LIG1        0.0000
     20 C20         0.0401    1.4086    0.0104 C.cat   1  LIG1        0.0000
     21 N21        -1.1148    2.1984    0.0321 N.pl3   1  LIG1        0.0000
     22 C22        -1.0026    3.6639    0.0569 C.3     1  LIG1        0.0000
     23 C23        -2.4402    1.5627    0.0303 C.3     1  LIG1        0.0000
     24 C24        -3.3030    2.1931   -1.0507 C.3     1  LIG1        0.0000
     25 C25        -3.0994    1.7619    1.3849 C.3     1  LIG1        0.0000
     26 C26        -4.4593    2.0473    1.4526 C.3     1  LIG1        0.0000
     27 C27        -5.0708    2.2309    2.6882 C.3     1  LIG1        0.0000
     28 C28        -4.3065    2.1256    3.8458 C.3     1  LIG1        0.0000
     29 S29        -5.0666    2.3532    5.3945 S.O2    1  LIG1        0.0000
     30 N30        -4.9933    3.9277    5.8096 N.3     1  LIG1        0.0000
     31 O31        -6.4441    1.9405    5.3184 O.2     1  LIG1        0.0000
     32 O32        -4.3830    1.5631    6.3854 O.2     1  LIG1        0.0000
     33 C33        -2.9459    1.8404    3.7877 C.3     1  LIG1        0.0000
     34 C34        -2.3433    1.6585    2.5473 C.3     1  LIG1        0.0000
     35 N35        -4.0604   -1.3542   -2.2169 N.pl3   1  LIG1        0.0000
     36 H          -2.3404    0.5844   -0.1512 H       1  LIG1        0.0000
     37 H          -7.1610   -2.2454   -2.9651 H       1  LIG1        0.0000
     38 H          -6.4331   -0.9374   -3.6176 H       1  LIG1        0.0000
     39 H          -5.9103   -2.4371   -3.9974 H       1  LIG1        0.0000
     40 H          -6.6862   -2.6395   -0.7592 H       1  LIG1        0.0000
     41 H          -5.1864   -2.5978    1.1106 H       1  LIG1        0.0000
     42 H          -2.9604   -1.7498    0.8345 H       1  LIG1        0.0000
     43 H          -1.8067    0.1745   -1.6430 H       1  LIG1        0.0000
     44 H          -1.2840   -1.3243   -2.0262 H       1  LIG1        0.0000
     45 H          -1.6781   -0.6154    0.7255 H       1  LIG1        0.0000
     46 H          -0.7292   -1.8047    0.1322 H       1  LIG1        0.0000
     47 H           0.6520   -2.3546    1.4280 H       1  LIG1        0.0000
     48 H           1.5105   -4.5929    1.4141 H       1  LIG1        0.0000
     49 H           3.2918   -5.1769   -0.0775 H       1  LIG1        0.0000
     50 H           4.8028   -4.6339   -1.7242 H       1  LIG1        0.0000
     51 H           4.2936   -3.5192   -2.8035 H       1  LIG1        0.0000
     52 H           5.3854   -3.1096   -1.6603 H       1  LIG1        0.0000
     53 H          -1.9172    4.0681    0.0703 H       1  LIG1        0.0000
     54 H          -0.5014    3.9461    0.8750 H       1  LIG1        0.0000
     55 H          -0.5128    3.9746   -0.7577 H       1  LIG1        0.0000
     56 H          -4.2046    1.7606   -1.0520 H       1  LIG1        0.0000
     57 H          -3.4028    3.1714   -0.8692 H       1  LIG1        0.0000
     58 H          -2.8692    2.0620   -1.9421 H       1  LIG1        0.0000
     59 H          -4.9973    2.1205    0.6128 H       1  LIG1        0.0000
     60 H          -6.0479    2.4360    2.7439 H       1  LIG1        0.0000
     61 H          -4.0367    4.2142    5.8625 H       1  LIG1        0.0000
     62 H          -5.4680    4.4763    5.1215 H       1  LIG1        0.0000
     63 H          -2.4078    1.7672    4.6274 H       1  LIG1        0.0000
     64 H          -1.3661    1.4534    2.4915 H       1  LIG1        0.0000
@<TRIPOS>BOND
     1     1     2    1
     2     2     3   ar
     3     3     4   ar
     4     4     5   ar
     5     5     6   ar
     6     6     7    1
     7     7     8    1
     8     8     9    1
     9     9    10    1
    10    10    11    1
    11    11    12   ar
    12    12    13   ar
    13    13    14   ar
    14    14    15   ar
    15    15    16    1
    16    15    17   ar
    17    17    11   ar
    18    10    18    2
    19    18    19    1
    20    19    20    2
    21    20     9    1
    22    20    21    1
    23    21    22    1
    24    21    23    1
    25    23    24    1
    26    23    25    1
    27    25    26   ar
    28    26    27   ar
    29    27    28   ar
    30    28    29    1
    31    29    30    1
    32    29    31    2
    33    29    32    2
    34    28    33   ar
    35    33    34   ar
    36    34    25   ar
    37     6    35   ar
    38    35     2   ar
    39    23    36    1
    40     1    37    1
    41     1    38    1
    42     1    39    1
    43     3    40    1
    44     4    41    1
    45     5    42    1
    46     7    43    1
    47     7    44    1
    48     8    45    1
    49     8    46    1
    50    12    47    1
    51    13    48    1
    52    14    49    1
    53    16    50    1
    54    16    51    1
    55    16    52    1
    56    22    53    1
    57    22    54    1
    58    22    55    1
    59    24    56    1
    60    24    57    1
    61    24    58    1
    62    26    59    1
    63    27    60    1
    64    30    61    1
    65    30    62    1
    66    33    63    1
    67    34    64    1
