@<TRIPOS>MOLECULE
*****
 64 67 0 0 0
SMALL
USER_CHARGES

@<TRIPOS>ATOM
      1 C1         -3.9600   -4.7595    3.9194 C.3     1  LIG1        0.0000
      2 C2         -3.4353   -4.1631    2.6210 C.3     1  LIG1        0.0000
      3 C3         -3.7250   -4.8248    1.4320 C.3     1  LIG1        0.0000
      4 C4         -3.2591   -4.2976    0.2322 C.3     1  LIG1        0.0000
      5 C5         -2.5121   -3.1240    0.2321 C.3     1  LIG1        0.0000
      6 C6         -2.2432   -2.4921    1.4427 C.3     1  LIG1        0.0000
      7 C7         -1.4243   -1.2089    1.4227 C.3     1  LIG1        0.0000
      8 C8         -1.0507   -0.8686   -0.0109 C.3     1  LIG1        0.0000
      9 N9          0.0969    0.0481   -0.0133 N.pl3   1  LIG1        0.0000
     10 C10         1.4071   -0.3124   -0.0293 C.2     1  LIG1        0.0000
     11 C11         1.9417   -1.6619   -0.0557 C.3     1  LIG1        0.0000
     12 C12         2.1637   -2.2607   -1.2921 C.3     1  LIG1        0.0000
     13 C13         2.6744   -3.5542   -1.3383 C.3     1  LIG1        0.0000
     14 C14         2.9564   -4.2325   -0.1588 C.3     1  LIG1        0.0000
     15 C15         2.7231   -3.6012    1.0597 C.3     1  LIG1        0.0000
     16 C16         3.0378   -4.3610    2.3404 C.3     1  LIG1        0.0000
     17 N17         2.2273   -2.3509    1.0646 N.pl3   1  LIG1        0.0000
     18 N18         2.0962    0.7986   -0.0261 N.2     1  LIG1        0.0000
     19 N19         1.2800    1.8369    0.0092 N.2     1  LIG1        0.0000
     20 C20         0.0401    1.4086    0.0104 C.cat   1  LIG1        0.0000
     21 N21        -1.1148    2.1984    0.0321 N.pl3   1  LIG1        0.0000
     22 C22        -1.0026    3.6639    0.0569 C.3     1  LIG1        0.0000
     23 C23        -2.4402    1.5627    0.0303 C.3     1  LIG1        0.0000
     24 C24        -2.7992    1.1438   -1.3861 C.3     1  LIG1        0.0000
     25 C25        -3.4757    2.5488    0.5448 C.3     1  LIG1        0.0000
     26 C26        -4.7271    2.6099   -0.0599 C.3     1  LIG1        0.0000
     27 C27        -5.6808    3.5093    0.4048 C.3     1  LIG1        0.0000
     28 C28        -5.3654    4.3401    1.4751 C.3     1  LIG1        0.0000
     29 S29        -6.5552    5.4664    2.0613 S.O2    1  LIG1        0.0000
     30 N30        -7.4502    4.7555    3.2234 N.3     1  LIG1        0.0000
     31 O31        -5.8935    6.6237    2.6056 O.2     1  LIG1        0.0000
     32 O32        -7.4110    5.8692    0.9754 O.2     1  LIG1        0.0000
     33 C33        -4.1164    4.2858    2.0860 C.3     1  LIG1        0.0000
     34 C34        -3.1692    3.3831    1.6141 C.3     1  LIG1        0.0000
     35 N35        -2.7109   -3.0306    2.5834 N.pl3   1  LIG1        0.0000
     36 H          -2.4242    0.7569    0.6223 H       1  LIG1        0.0000
     37 H          -4.4698   -5.5963    3.7197 H       1  LIG1        0.0000
     38 H          -3.1916   -4.9732    4.5226 H       1  LIG1        0.0000
     39 H          -4.5635   -4.1008    4.3688 H       1  LIG1        0.0000
     40 H          -4.2614   -5.6688    1.4399 H       1  LIG1        0.0000
     41 H          -3.4610   -4.7620   -0.6301 H       1  LIG1        0.0000
     42 H          -2.1729   -2.7394   -0.6265 H       1  LIG1        0.0000
     43 H          -0.5924   -1.3359    1.9628 H       1  LIG1        0.0000
     44 H          -1.9642   -0.4628    1.8124 H       1  LIG1        0.0000
     45 H          -0.8089   -1.7066   -0.5002 H       1  LIG1        0.0000
     46 H          -1.8279   -0.4310   -0.4630 H       1  LIG1        0.0000
     47 H           1.9587   -1.7673   -2.1373 H       1  LIG1        0.0000
     48 H           2.8386   -3.9956   -2.2204 H       1  LIG1        0.0000
     49 H           3.3224   -5.1627   -0.1850 H       1  LIG1        0.0000
     50 H           3.3946   -5.2667    2.1115 H       1  LIG1        0.0000
     51 H           3.7217   -3.8568    2.8676 H       1  LIG1        0.0000
     52 H           2.2038   -4.4588    2.8835 H       1  LIG1        0.0000
     53 H          -1.9172    4.0681    0.0703 H       1  LIG1        0.0000
     54 H          -0.5014    3.9461    0.8750 H       1  LIG1        0.0000
     55 H          -0.5128    3.9746   -0.7577 H       1  LIG1        0.0000
     56 H          -3.7009    0.7114   -1.3873 H       1  LIG1        0.0000
     57 H          -2.8152    1.9496   -1.9781 H       1  LIG1        0.0000
     58 H          -2.1178    0.4949   -1.7246 H       1  LIG1        0.0000
     59 H          -4.9409    2.0072   -0.8286 H       1  LIG1        0.0000
     60 H          -6.5823    3.5582   -0.0252 H       1  LIG1        0.0000
     61 H          -7.9098    3.9518    2.8454 H       1  LIG1        0.0000
     62 H          -6.8560    4.4758    3.9775 H       1  LIG1        0.0000
     63 H          -3.9024    4.8884    2.8548 H       1  LIG1        0.0000
     64 H          -2.2676    3.3341    2.0440 H       1  LIG1        0.0000
@<TRIPOS>BOND
     1     1     2    1
     2     2     3   ar
     3     3     4   ar
     4     4     5   ar
     5     5     6   ar
     6     6     7    1
     7     7     8    1
     8     8     9    1
     9     9    10    1
    10    10    11    1
    11    11    12   ar
    12    12    13   ar
    13    13    14   ar
    14    14    15   ar
    15    15    16    1
    16    15    17   ar
    17    17    11   ar
    18    10    18    2
    19    18    19    1
    20    19    20    2
    21    20     9    1
    22    20    21    1
    23    21    22    1
    24    21    23    1
    25    23    24    1
    26    23    25    1
    27    25    26   ar
    28    26    27   ar
    29    27    28   ar
    30    28    29    1
    31    29    30    1
    32    29    31    2
    33    29    32    2
    34    28    33   ar
    35    33    34   ar
    36    34    25   ar
    37     6    35   ar
    38    35     2   ar
    39    23    36    1
    40     1    37    1
    41     1    38    1
    42     1    39    1
    43     3    40    1
    44     4    41    1
    45     5    42    1
    46     7    43    1
    47     7    44    1
    48     8    45    1
    49     8    46    1
    50    12    47    1
    51    13    48    1
    52    14    49    1
    53    16    50    1
    54    16    51    1
    55    16    52    1
    56    22    53    1
    57    22    54    1
    58    22    55    1
    59    24    56    1
    60    24    57    1
    61    24    58    1
    62    26    59    1
    63    27    60    1
    64    30    61    1
    65    30    62    1
    66    33    63    1
    67    34    64    1
