@<TRIPOS>MOLECULE
*****
 64 67 0 0 0
SMALL
USER_CHARGES

@<TRIPOS>ATOM
      1 C1         -5.0312   -4.6154    1.4559 C.3     1  LIG1        0.0000
      2 C2         -4.7045   -3.1405    1.2702 C.3     1  LIG1        0.0000
      3 C3         -5.7493   -2.2698    0.9775 C.3     1  LIG1        0.0000
      4 C4         -5.4762   -0.9168    0.8064 C.3     1  LIG1        0.0000
      5 C5         -4.1710   -0.4504    0.9265 C.3     1  LIG1        0.0000
      6 C6         -3.1533   -1.3535    1.2197 C.3     1  LIG1        0.0000
      7 C7         -1.7315   -0.8246    1.3474 C.3     1  LIG1        0.0000
      8 C8         -1.0507   -0.8686   -0.0109 C.3     1  LIG1        0.0000
      9 N9          0.0969    0.0481   -0.0133 N.pl3   1  LIG1        0.0000
     10 C10         1.4071   -0.3124   -0.0293 C.2     1  LIG1        0.0000
     11 C11         1.9417   -1.6619   -0.0557 C.3     1  LIG1        0.0000
     12 C12         1.2098   -2.6748    0.5566 C.3     1  LIG1        0.0000
     13 C13         1.7059   -3.9746    0.5430 C.3     1  LIG1        0.0000
     14 C14         2.9189   -4.2489   -0.0769 C.3     1  LIG1        0.0000
     15 C15         3.6227   -3.2108   -0.6806 C.3     1  LIG1        0.0000
     16 C16         4.9496   -3.5315   -1.3539 C.3     1  LIG1        0.0000
     17 N17         3.1121   -1.9669   -0.6459 N.pl3   1  LIG1        0.0000
     18 N18         2.0962    0.7986   -0.0261 N.2     1  LIG1        0.0000
     19 N19         1.2800    1.8369    0.0092 N.2     1  LIG1        0.0000
     20 C20         0.0401    1.4086    0.0104 C.cat   1  LIG1        0.0000
     21 N21        -1.1148    2.1984    0.0321 N.pl3   1  LIG1        0.0000
     22 C22        -1.0026    3.6639    0.0569 C.3     1  LIG1        0.0000
     23 C23        -2.4402    1.5627    0.0303 C.3     1  LIG1        0.0000
     24 C24        -3.1183    1.8089   -1.3076 C.3     1  LIG1        0.0000
     25 C25        -3.2875    2.1547    1.1442 C.3     1  LIG1        0.0000
     26 C26        -2.7698    2.2362    2.4329 C.3     1  LIG1        0.0000
     27 C27        -3.5385    2.7768    3.4582 C.3     1  LIG1        0.0000
     28 C28        -4.8228    3.2307    3.1765 C.3     1  LIG1        0.0000
     29 S29        -5.7884    3.9091    4.4554 S.O2    1  LIG1        0.0000
     30 N30        -5.5277    5.5160    4.5392 N.3     1  LIG1        0.0000
     31 O31        -7.1816    3.6623    4.1876 O.2     1  LIG1        0.0000
     32 O32        -5.4246    3.2979    5.7074 O.2     1  LIG1        0.0000
     33 C33        -5.3488    3.1533    1.8906 C.3     1  LIG1        0.0000
     34 C34        -4.5725    2.6110    0.8718 C.3     1  LIG1        0.0000
     35 N35        -3.4551   -2.6547    1.3795 N.pl3   1  LIG1        0.0000
     36 H          -2.3381    0.5787    0.1762 H       1  LIG1        0.0000
     37 H          -6.0133   -4.7574    1.3319 H       1  LIG1        0.0000
     38 H          -4.5284   -5.1558    0.7812 H       1  LIG1        0.0000
     39 H          -4.7667   -4.9020    2.3767 H       1  LIG1        0.0000
     40 H          -6.6849   -2.6124    0.8913 H       1  LIG1        0.0000
     41 H          -6.2178   -0.2794    0.5971 H       1  LIG1        0.0000
     42 H          -3.9667    0.5208    0.8039 H       1  LIG1        0.0000
     43 H          -1.2217   -1.3917    1.9943 H       1  LIG1        0.0000
     44 H          -1.7552    0.1189    1.6779 H       1  LIG1        0.0000
     45 H          -0.7343   -1.7992   -0.1951 H       1  LIG1        0.0000
     46 H          -1.7004   -0.5912   -0.7186 H       1  LIG1        0.0000
     47 H           0.3375   -2.4708    1.0011 H       1  LIG1        0.0000
     48 H           1.1896   -4.7114    0.9794 H       1  LIG1        0.0000
     49 H           3.2817   -5.1807   -0.0892 H       1  LIG1        0.0000
     50 H           5.1410   -4.5089   -1.2645 H       1  LIG1        0.0000
     51 H           4.8990   -3.2889   -2.3227 H       1  LIG1        0.0000
     52 H           5.6804   -3.0073   -0.9167 H       1  LIG1        0.0000
     53 H          -1.9172    4.0681    0.0703 H       1  LIG1        0.0000
     54 H          -0.5014    3.9461    0.8750 H       1  LIG1        0.0000
     55 H          -0.5128    3.9746   -0.7577 H       1  LIG1        0.0000
     56 H          -4.0200    1.3764   -1.3089 H       1  LIG1        0.0000
     57 H          -3.2204    2.7929   -1.4535 H       1  LIG1        0.0000
     58 H          -2.5607    1.4193   -2.0406 H       1  LIG1        0.0000
     59 H          -1.8451    1.9060    2.6220 H       1  LIG1        0.0000
     60 H          -3.1722    2.8384    4.3867 H       1  LIG1        0.0000
     61 H          -4.5602    5.6874    4.7251 H       1  LIG1        0.0000
     62 H          -5.7803    5.9404    3.6697 H       1  LIG1        0.0000
     63 H          -6.2735    3.4835    1.7013 H       1  LIG1        0.0000
     64 H          -4.9386    2.5493   -0.0568 H       1  LIG1        0.0000
@<TRIPOS>BOND
     1     1     2    1
     2     2     3   ar
     3     3     4   ar
     4     4     5   ar
     5     5     6   ar
     6     6     7    1
     7     7     8    1
     8     8     9    1
     9     9    10    1
    10    10    11    1
    11    11    12   ar
    12    12    13   ar
    13    13    14   ar
    14    14    15   ar
    15    15    16    1
    16    15    17   ar
    17    17    11   ar
    18    10    18    2
    19    18    19    1
    20    19    20    2
    21    20     9    1
    22    20    21    1
    23    21    22    1
    24    21    23    1
    25    23    24    1
    26    23    25    1
    27    25    26   ar
    28    26    27   ar
    29    27    28   ar
    30    28    29    1
    31    29    30    1
    32    29    31    2
    33    29    32    2
    34    28    33   ar
    35    33    34   ar
    36    34    25   ar
    37     6    35   ar
    38    35     2   ar
    39    23    36    1
    40     1    37    1
    41     1    38    1
    42     1    39    1
    43     3    40    1
    44     4    41    1
    45     5    42    1
    46     7    43    1
    47     7    44    1
    48     8    45    1
    49     8    46    1
    50    12    47    1
    51    13    48    1
    52    14    49    1
    53    16    50    1
    54    16    51    1
    55    16    52    1
    56    22    53    1
    57    22    54    1
    58    22    55    1
    59    24    56    1
    60    24    57    1
    61    24    58    1
    62    26    59    1
    63    27    60    1
    64    30    61    1
    65    30    62    1
    66    33    63    1
    67    34    64    1
