@<TRIPOS>MOLECULE
*****
 64 67 0 0 0
SMALL
USER_CHARGES

@<TRIPOS>ATOM
      1 C1         -6.1868   -1.9716    3.3734 C.3     1  LIG1        0.0000
      2 C2         -5.2496   -1.8939    2.1767 C.3     1  LIG1        0.0000
      3 C3         -5.7267   -2.3220    0.9420 C.3     1  LIG1        0.0000
      4 C4         -4.8899   -2.2578   -0.1672 C.3     1  LIG1        0.0000
      5 C5         -3.5934   -1.7717   -0.0327 C.3     1  LIG1        0.0000
      6 C6         -3.1533   -1.3535    1.2197 C.3     1  LIG1        0.0000
      7 C7         -1.7315   -0.8246    1.3474 C.3     1  LIG1        0.0000
      8 C8         -1.0507   -0.8686   -0.0109 C.3     1  LIG1        0.0000
      9 N9          0.0969    0.0481   -0.0133 N.pl3   1  LIG1        0.0000
     10 C10         1.4071   -0.3124   -0.0293 C.2     1  LIG1        0.0000
     11 C11         1.9417   -1.6619   -0.0557 C.3     1  LIG1        0.0000
     12 C12         3.3234   -1.8251   -0.0818 C.3     1  LIG1        0.0000
     13 C13         3.8550   -3.1106   -0.1086 C.3     1  LIG1        0.0000
     14 C14         3.0087   -4.2127   -0.1092 C.3     1  LIG1        0.0000
     15 C15         1.6317   -4.0111   -0.0810 C.3     1  LIG1        0.0000
     16 C16         0.7215   -5.2310   -0.0828 C.3     1  LIG1        0.0000
     17 N17         1.1547   -2.7537   -0.0571 N.pl3   1  LIG1        0.0000
     18 N18         2.0962    0.7986   -0.0261 N.2     1  LIG1        0.0000
     19 N19         1.2800    1.8369    0.0092 N.2     1  LIG1        0.0000
     20 C20         0.0401    1.4086    0.0104 C.cat   1  LIG1        0.0000
     21 N21        -1.1148    2.1984    0.0321 N.pl3   1  LIG1        0.0000
     22 C22        -1.0026    3.6639    0.0569 C.3     1  LIG1        0.0000
     23 C23        -2.4402    1.5627    0.0303 C.3     1  LIG1        0.0000
     24 C24        -3.1183    1.8089   -1.3076 C.3     1  LIG1        0.0000
     25 C25        -3.2875    2.1547    1.1442 C.3     1  LIG1        0.0000
     26 C26        -4.6352    2.4156    0.9186 C.3     1  LIG1        0.0000
     27 C27        -5.4181    2.9571    1.9326 C.3     1  LIG1        0.0000
     28 C28        -4.8361    3.2317    3.1659 C.3     1  LIG1        0.0000
     29 S29        -5.8112    3.9082    4.4386 S.O2    1  LIG1        0.0000
     30 N30        -6.4689    2.7035    5.3178 N.3     1  LIG1        0.0000
     31 O31        -4.9885    4.7291    5.2888 O.2     1  LIG1        0.0000
     32 O32        -6.8596    4.7113    3.8647 O.2     1  LIG1        0.0000
     33 C33        -3.4890    2.9740    3.4006 C.3     1  LIG1        0.0000
     34 C34        -2.7142    2.4324    2.3803 C.3     1  LIG1        0.0000
     35 N35        -3.9909   -1.4293    2.2698 N.pl3   1  LIG1        0.0000
     36 H          -2.3381    0.5787    0.1762 H       1  LIG1        0.0000
     37 H          -7.0681   -2.3445    3.0829 H       1  LIG1        0.0000
     38 H          -5.7874   -2.5656    4.0716 H       1  LIG1        0.0000
     39 H          -6.3209   -1.0558    3.7519 H       1  LIG1        0.0000
     40 H          -6.6594   -2.6716    0.8530 H       1  LIG1        0.0000
     41 H          -5.2202   -2.5609   -1.0611 H       1  LIG1        0.0000
     42 H          -2.9856   -1.7235   -0.8254 H       1  LIG1        0.0000
     43 H          -1.2217   -1.3917    1.9943 H       1  LIG1        0.0000
     44 H          -1.7552    0.1189    1.6779 H       1  LIG1        0.0000
     45 H          -0.7343   -1.7992   -0.1951 H       1  LIG1        0.0000
     46 H          -1.7004   -0.5912   -0.7186 H       1  LIG1        0.0000
     47 H           3.9271   -1.0279   -0.0813 H       1  LIG1        0.0000
     48 H           4.8462   -3.2415   -0.1274 H       1  LIG1        0.0000
     49 H           3.3843   -5.1393   -0.1297 H       1  LIG1        0.0000
     50 H           1.2777   -6.0618   -0.1024 H       1  LIG1        0.0000
     51 H           0.1572   -5.2270    0.7428 H       1  LIG1        0.0000
     52 H           0.1316   -5.2056   -0.8899 H       1  LIG1        0.0000
     53 H          -1.9172    4.0681    0.0703 H       1  LIG1        0.0000
     54 H          -0.5014    3.9461    0.8750 H       1  LIG1        0.0000
     55 H          -0.5128    3.9746   -0.7577 H       1  LIG1        0.0000
     56 H          -4.0200    1.3764   -1.3089 H       1  LIG1        0.0000
     57 H          -3.2204    2.7929   -1.4535 H       1  LIG1        0.0000
     58 H          -2.5607    1.4193   -2.0406 H       1  LIG1        0.0000
     59 H          -5.0412    2.2137    0.0272 H       1  LIG1        0.0000
     60 H          -6.3875    3.1468    1.7770 H       1  LIG1        0.0000
     61 H          -7.0402    2.1335    4.7274 H       1  LIG1        0.0000
     62 H          -5.7409    2.1458    5.7164 H       1  LIG1        0.0000
     63 H          -3.0829    3.1757    4.2919 H       1  LIG1        0.0000
     64 H          -1.7448    2.2426    2.5357 H       1  LIG1        0.0000
@<TRIPOS>BOND
     1     1     2    1
     2     2     3   ar
     3     3     4   ar
     4     4     5   ar
     5     5     6   ar
     6     6     7    1
     7     7     8    1
     8     8     9    1
     9     9    10    1
    10    10    11    1
    11    11    12   ar
    12    12    13   ar
    13    13    14   ar
    14    14    15   ar
    15    15    16    1
    16    15    17   ar
    17    17    11   ar
    18    10    18    2
    19    18    19    1
    20    19    20    2
    21    20     9    1
    22    20    21    1
    23    21    22    1
    24    21    23    1
    25    23    24    1
    26    23    25    1
    27    25    26   ar
    28    26    27   ar
    29    27    28   ar
    30    28    29    1
    31    29    30    1
    32    29    31    2
    33    29    32    2
    34    28    33   ar
    35    33    34   ar
    36    34    25   ar
    37     6    35   ar
    38    35     2   ar
    39    23    36    1
    40     1    37    1
    41     1    38    1
    42     1    39    1
    43     3    40    1
    44     4    41    1
    45     5    42    1
    46     7    43    1
    47     7    44    1
    48     8    45    1
    49     8    46    1
    50    12    47    1
    51    13    48    1
    52    14    49    1
    53    16    50    1
    54    16    51    1
    55    16    52    1
    56    22    53    1
    57    22    54    1
    58    22    55    1
    59    24    56    1
    60    24    57    1
    61    24    58    1
    62    26    59    1
    63    27    60    1
    64    30    61    1
    65    30    62    1
    66    33    63    1
    67    34    64    1
