@<TRIPOS>MOLECULE

  65   68
SMALL
USER_CHARGES
@<TRIPOS>ATOM
   1 C1           3.8933    -3.9650    -6.8311 C.3          1    LIG   0.0000
   2 C2           4.2424    -2.6551    -6.1466 C.ar         1    LIG   0.0000
   3 C3           4.3730    -1.4707    -6.8635 C.ar         1    LIG   0.0000
   4 C4           4.6941    -0.3027    -6.1797 C.ar         1    LIG   0.0000
   5 C5           4.8281     0.9732    -6.9969 C.3          1    LIG   0.0000
   6 C6           4.8841    -0.3104    -4.7990 C.ar         1    LIG   0.0000
   7 N7           5.2008     0.8395    -4.1170 N.pl3        1    LIG   0.0000
   8 C8           5.3941     0.8661    -2.7599 C.2          1    LIG   0.0000
   9 C9           5.2728    -0.2861    -2.0274 C.2          1    LIG   0.0000
  10 C10          5.4735    -0.2790    -0.5909 C.2          1    LIG   0.0000
  11 O11          6.5674    -0.4719    -0.1369 O.2          1    LIG   0.0000
  12 N12          4.3912    -0.0471     0.2658 N.am         1    LIG   0.0000
  13 C13          3.0140     0.1993    -0.1582 C.3          1    LIG   0.0000
  14 C14          2.4701     1.0000     1.0000 C.3          1    LIG   0.0000
  15 N15          1.0000     1.0000     1.0000 N.am         1    LIG   0.0000
  16 C16          0.3150     2.1865     1.0000 C.2          1    LIG   0.0000
  17 O17          0.9150     3.2257     1.0000 O.2          1    LIG   0.0000
  18 O18         -0.9950     2.1865     1.0000 O.3          1    LIG   0.0000
  19 C19         -1.6063     3.4681     1.0000 C.3          1    LIG   0.0000
  20 C20         -3.1179     3.3085     1.0000 C.3          1    LIG   0.0000
  21 C21         -1.1777     4.2339     2.2411 C.3          1    LIG   0.0000
  22 C22         -1.1777     4.2339    -0.2411 C.3          1    LIG   0.0000
  23 C23          3.0158     0.1973     2.1604 C.3          1    LIG   0.0000
  24 C24          2.9314     0.9713     3.4659 C.ar         1    LIG   0.0000
  25 C25          2.2525     0.4198     4.5471 C.ar         1    LIG   0.0000
  26 C26          2.1801     1.1357     5.7376 C.ar         1    LIG   0.0000
  27 C27          2.7759     2.3871     5.8549 C.ar         1    LIG   0.0000
  28 C28          3.4506     2.9189     4.7609 C.ar         1    LIG   0.0000
  29 F29          4.0242     4.1146     4.8605 F            1    LIG   0.0000
  30 C30          3.5354     2.2208     3.5610 C.ar         1    LIG   0.0000
  31 C31          4.4516    -0.0127     1.7251 C.3          1    LIG   0.0000
  32 C32          4.9464    -1.5075    -2.6752 C.2          1    LIG   0.0000
  33 O33          4.8426    -2.5229    -2.0022 O.2          1    LIG   0.0000
  34 C34          4.7525    -1.4996    -4.0838 C.ar         1    LIG   0.0000
  35 C35          4.4307    -2.6665    -4.7707 C.ar         1    LIG   0.0000
  36 H            5.2940     1.6919    -4.6314 H            1    LIG   0.0000
  37 H            2.8334     1.9317     1.0000 H            1    LIG   0.0000
  38 H            2.5393    -0.6784     2.2383 H            1    LIG   0.0000
  39 H            3.7874    -3.8099    -7.8133 H            1    LIG   0.0000
  40 H            4.6255    -4.6280    -6.6753 H            1    LIG   0.0000
  41 H            3.0371    -4.3195    -6.4554 H            1    LIG   0.0000
  42 H            4.2382    -1.4589    -7.8543 H            1    LIG   0.0000
  43 H            4.6553     0.7713    -7.9609 H            1    LIG   0.0000
  44 H            4.1643     1.6475    -6.6734 H            1    LIG   0.0000
  45 H            5.7528     1.3396    -6.8936 H            1    LIG   0.0000
  46 H            5.6236     1.7263    -2.3044 H            1    LIG   0.0000
  47 H            2.5110    -0.6569    -0.2764 H            1    LIG   0.0000
  48 H            2.9837     0.7239    -1.0090 H            1    LIG   0.0000
  49 H            0.5000     0.1340     1.0000 H            1    LIG   0.0000
  50 H           -3.5484     4.2111     1.0000 H            1    LIG   0.0000
  51 H           -3.3999     2.8047     0.1835 H            1    LIG   0.0000
  52 H           -3.3999     2.8047     1.8165 H            1    LIG   0.0000
  53 H           -1.6082     5.1365     2.2411 H            1    LIG   0.0000
  54 H           -1.4597     3.7301     3.0576 H            1    LIG   0.0000
  55 H           -0.1832     4.3389     2.2411 H            1    LIG   0.0000
  56 H           -1.6082     5.1365    -0.2411 H            1    LIG   0.0000
  57 H           -0.1832     4.3389    -0.2411 H            1    LIG   0.0000
  58 H           -1.4597     3.7301    -1.0576 H            1    LIG   0.0000
  59 H            1.8221    -0.4795     4.4698 H            1    LIG   0.0000
  60 H            1.6935     0.7456     6.5193 H            1    LIG   0.0000
  61 H            2.7199     2.8971     6.7133 H            1    LIG   0.0000
  62 H            4.0226     2.6106     2.7795 H            1    LIG   0.0000
  63 H            5.0293     0.7415     2.0371 H            1    LIG   0.0000
  64 H            4.8071    -0.8756     2.0845 H            1    LIG   0.0000
  65 H            4.3337    -3.5248    -4.2667 H            1    LIG   0.0000
@<TRIPOS>BOND
   1        1        2 1
   2        2        3 ar
   3        3        4 ar
   4        4        5 1
   5        4        6 ar
   6        6        7 1
   7        7        8 1
   8        8        9 2
   9        9       10 1
  10       10       11 2
  11       10       12 am
  12       12       13 1
  13       13       14 1
  14       14       15 1
  15       15       16 am
  16       16       17 2
  17       16       18 1
  18       18       19 1
  19       19       20 1
  20       19       21 1
  21       19       22 1
  22       14       23 1
  23       23       24 1
  24       24       25 ar
  25       25       26 ar
  26       26       27 ar
  27       27       28 ar
  28       28       29 1
  29       28       30 ar
  30       30       24 ar
  31       23       31 1
  32       31       12 1
  33        9       32 1
  34       32       33 2
  35       32       34 1
  36       34        6 ar
  37       34       35 ar
  38       35        2 ar
  39        7       36 1
  40       14       37 1
  41       23       38 1
  42        1       39 1
  43        1       40 1
  44        1       41 1
  45        3       42 1
  46        5       43 1
  47        5       44 1
  48        5       45 1
  49        8       46 1
  50       13       47 1
  51       13       48 1
  52       15       49 1
  53       20       50 1
  54       20       51 1
  55       20       52 1
  56       21       53 1
  57       21       54 1
  58       21       55 1
  59       22       56 1
  60       22       57 1
  61       22       58 1
  62       25       59 1
  63       26       60 1
  64       27       61 1
  65       30       62 1
  66       31       63 1
  67       31       64 1
  68       35       65 1

@<TRIPOS>MOLECULE

  65   68
SMALL
USER_CHARGES
@<TRIPOS>ATOM
   1 C1           5.2782     3.3438    -7.0608 C.3          1    LIG   0.0000
   2 C2           5.1318     2.0411    -6.2941 C.ar         1    LIG   0.0000
   3 C3           4.8114     0.8500    -6.9363 C.ar         1    LIG   0.0000
   4 C4           4.6915    -0.3108    -6.1793 C.ar         1    LIG   0.0000
   5 C5           4.3404    -1.5944    -6.9160 C.3          1    LIG   0.0000
   6 C6           4.8871    -0.2894    -4.7995 C.ar         1    LIG   0.0000
   7 N7           4.7711    -1.4322    -4.0457 N.pl3        1    LIG   0.0000
   8 C8           4.9570    -1.4453    -2.6874 C.2          1    LIG   0.0000
   9 C9           5.2728    -0.2861    -2.0274 C.2          1    LIG   0.0000
  10 C10          5.4735    -0.2790    -0.5909 C.2          1    LIG   0.0000
  11 O11          6.5674    -0.4719    -0.1369 O.2          1    LIG   0.0000
  12 N12          4.3912    -0.0471     0.2658 N.am         1    LIG   0.0000
  13 C13          3.0140     0.1993    -0.1582 C.3          1    LIG   0.0000
  14 C14          2.4701     1.0000     1.0000 C.3          1    LIG   0.0000
  15 N15          1.0000     1.0000     1.0000 N.am         1    LIG   0.0000
  16 C16          0.3150     2.1865     1.0000 C.2          1    LIG   0.0000
  17 O17          0.9150     3.2257     1.0000 O.2          1    LIG   0.0000
  18 O18         -0.9950     2.1865     1.0000 O.3          1    LIG   0.0000
  19 C19         -1.6063     3.4681     1.0000 C.3          1    LIG   0.0000
  20 C20         -3.1179     3.3085     1.0000 C.3          1    LIG   0.0000
  21 C21         -1.1777     4.2339     2.2411 C.3          1    LIG   0.0000
  22 C22         -1.1777     4.2339    -0.2411 C.3          1    LIG   0.0000
  23 C23          3.0158     0.1973     2.1604 C.3          1    LIG   0.0000
  24 C24          2.9314     0.9713     3.4659 C.ar         1    LIG   0.0000
  25 C25          2.2525     0.4198     4.5471 C.ar         1    LIG   0.0000
  26 C26          2.1801     1.1357     5.7376 C.ar         1    LIG   0.0000
  27 C27          2.7759     2.3871     5.8549 C.ar         1    LIG   0.0000
  28 C28          3.4506     2.9189     4.7609 C.ar         1    LIG   0.0000
  29 F29          4.0242     4.1146     4.8605 F            1    LIG   0.0000
  30 C30          3.5354     2.2208     3.5610 C.ar         1    LIG   0.0000
  31 C31          4.4516    -0.0127     1.7251 C.3          1    LIG   0.0000
  32 C32          5.4076     0.9284    -2.7517 C.2          1    LIG   0.0000
  33 O33          5.6905     1.9502    -2.1428 O.2          1    LIG   0.0000
  34 C34          5.2081     0.9065    -4.1594 C.ar         1    LIG   0.0000
  35 C35          5.3278     2.0662    -4.9195 C.ar         1    LIG   0.0000
  36 H            4.5416    -2.2894    -4.5066 H            1    LIG   0.0000
  37 H            2.8334     1.9317     1.0000 H            1    LIG   0.0000
  38 H            2.5393    -0.6784     2.2383 H            1    LIG   0.0000
  39 H            5.1111     3.1791    -8.0329 H            1    LIG   0.0000
  40 H            4.6158     4.0093    -6.7168 H            1    LIG   0.0000
  41 H            6.2041     3.7008    -6.9376 H            1    LIG   0.0000
  42 H            4.6695     0.8283    -7.9259 H            1    LIG   0.0000
  43 H            4.2422    -1.4021    -7.8924 H            1    LIG   0.0000
  44 H            5.0684    -2.2664    -6.7802 H            1    LIG   0.0000
  45 H            3.4799    -1.9585    -6.5598 H            1    LIG   0.0000
  46 H            4.8623    -2.3007    -2.1781 H            1    LIG   0.0000
  47 H            2.5110    -0.6569    -0.2764 H            1    LIG   0.0000
  48 H            2.9837     0.7239    -1.0090 H            1    LIG   0.0000
  49 H            0.5000     0.1340     1.0000 H            1    LIG   0.0000
  50 H           -3.5484     4.2111     1.0000 H            1    LIG   0.0000
  51 H           -3.3999     2.8047     0.1835 H            1    LIG   0.0000
  52 H           -3.3999     2.8047     1.8165 H            1    LIG   0.0000
  53 H           -1.6082     5.1365     2.2411 H            1    LIG   0.0000
  54 H           -1.4597     3.7301     3.0576 H            1    LIG   0.0000
  55 H           -0.1832     4.3389     2.2411 H            1    LIG   0.0000
  56 H           -1.6082     5.1365    -0.2411 H            1    LIG   0.0000
  57 H           -0.1832     4.3389    -0.2411 H            1    LIG   0.0000
  58 H           -1.4597     3.7301    -1.0576 H            1    LIG   0.0000
  59 H            1.8221    -0.4795     4.4698 H            1    LIG   0.0000
  60 H            1.6935     0.7456     6.5193 H            1    LIG   0.0000
  61 H            2.7199     2.8971     6.7133 H            1    LIG   0.0000
  62 H            4.0226     2.6106     2.7795 H            1    LIG   0.0000
  63 H            5.0293     0.7415     2.0371 H            1    LIG   0.0000
  64 H            4.8071    -0.8756     2.0845 H            1    LIG   0.0000
  65 H            5.5580     2.9292    -4.4698 H            1    LIG   0.0000
@<TRIPOS>BOND
   1        1        2 1
   2        2        3 ar
   3        3        4 ar
   4        4        5 1
   5        4        6 ar
   6        6        7 1
   7        7        8 1
   8        8        9 2
   9        9       10 1
  10       10       11 2
  11       10       12 am
  12       12       13 1
  13       13       14 1
  14       14       15 1
  15       15       16 am
  16       16       17 2
  17       16       18 1
  18       18       19 1
  19       19       20 1
  20       19       21 1
  21       19       22 1
  22       14       23 1
  23       23       24 1
  24       24       25 ar
  25       25       26 ar
  26       26       27 ar
  27       27       28 ar
  28       28       29 1
  29       28       30 ar
  30       30       24 ar
  31       23       31 1
  32       31       12 1
  33        9       32 1
  34       32       33 2
  35       32       34 1
  36       34        6 ar
  37       34       35 ar
  38       35        2 ar
  39        7       36 1
  40       14       37 1
  41       23       38 1
  42        1       39 1
  43        1       40 1
  44        1       41 1
  45        3       42 1
  46        5       43 1
  47        5       44 1
  48        5       45 1
  49        8       46 1
  50       13       47 1
  51       13       48 1
  52       15       49 1
  53       20       50 1
  54       20       51 1
  55       20       52 1
  56       21       53 1
  57       21       54 1
  58       21       55 1
  59       22       56 1
  60       22       57 1
  61       22       58 1
  62       25       59 1
  63       26       60 1
  64       27       61 1
  65       30       62 1
  66       31       63 1
  67       31       64 1
  68       35       65 1

@<TRIPOS>MOLECULE

  65   68
SMALL
USER_CHARGES
@<TRIPOS>ATOM
   1 C1          12.0151     2.3441     1.7223 C.3          1    LIG   0.0000
   2 C2          11.1000     1.1554     1.4858 C.ar         1    LIG   0.0000
   3 C3          11.5008    -0.1428     1.7822 C.ar         1    LIG   0.0000
   4 C4          10.6172    -1.1903     1.5436 C.ar         1    LIG   0.0000
   5 C5          11.0901    -2.5961     1.8804 C.3          1    LIG   0.0000
   6 C6           9.3494    -0.9517     1.0160 C.ar         1    LIG   0.0000
   7 N7           8.4712    -1.9813     0.7784 N.pl3        1    LIG   0.0000
   8 C8           7.2177    -1.7808     0.2604 C.2          1    LIG   0.0000
   9 C9           6.7958    -0.5122    -0.0421 C.2          1    LIG   0.0000
  10 C10          5.4735    -0.2790    -0.5909 C.2          1    LIG   0.0000
  11 O11          5.3075    -0.2849    -1.7793 O.2          1    LIG   0.0000
  12 N12          4.3912    -0.0471     0.2658 N.am         1    LIG   0.0000
  13 C13          3.0140     0.1993    -0.1582 C.3          1    LIG   0.0000
  14 C14          2.4701     1.0000     1.0000 C.3          1    LIG   0.0000
  15 N15          1.0000     1.0000     1.0000 N.am         1    LIG   0.0000
  16 C16          0.3150     2.1865     1.0000 C.2          1    LIG   0.0000
  17 O17          0.9150     3.2257     1.0000 O.2          1    LIG   0.0000
  18 O18         -0.9950     2.1865     1.0000 O.3          1    LIG   0.0000
  19 C19         -1.6063     3.4681     1.0000 C.3          1    LIG   0.0000
  20 C20         -3.1179     3.3085     1.0000 C.3          1    LIG   0.0000
  21 C21         -1.1777     4.2339     2.2411 C.3          1    LIG   0.0000
  22 C22         -1.1777     4.2339    -0.2411 C.3          1    LIG   0.0000
  23 C23          3.0158     0.1973     2.1604 C.3          1    LIG   0.0000
  24 C24          2.9314     0.9713     3.4659 C.ar         1    LIG   0.0000
  25 C25          2.2525     0.4198     4.5471 C.ar         1    LIG   0.0000
  26 C26          2.1801     1.1357     5.7376 C.ar         1    LIG   0.0000
  27 C27          2.7759     2.3871     5.8549 C.ar         1    LIG   0.0000
  28 C28          3.4506     2.9189     4.7609 C.ar         1    LIG   0.0000
  29 F29          4.0242     4.1146     4.8605 F            1    LIG   0.0000
  30 C30          3.5354     2.2208     3.5610 C.ar         1    LIG   0.0000
  31 C31          4.4516    -0.0127     1.7251 C.3          1    LIG   0.0000
  32 C32          7.6579     0.5945     0.1817 C.2          1    LIG   0.0000
  33 O33          7.2607     1.7172    -0.0948 O.2          1    LIG   0.0000
  34 C34          8.9512     0.3510     0.7200 C.ar         1    LIG   0.0000
  35 C35          9.8374     1.3970     0.9603 C.ar         1    LIG   0.0000
  36 H            8.7581    -2.9151     0.9920 H            1    LIG   0.0000
  37 H            2.8334     1.9317     1.0000 H            1    LIG   0.0000
  38 H            2.5393    -0.6784     2.2383 H            1    LIG   0.0000
  39 H           12.8844     2.0255     2.1003 H            1    LIG   0.0000
  40 H           12.1809     2.8147     0.8557 H            1    LIG   0.0000
  41 H           11.5826     2.9747     2.3667 H            1    LIG   0.0000
  42 H           12.4092    -0.3203     2.1606 H            1    LIG   0.0000
  43 H           12.0205    -2.5565     2.2448 H            1    LIG   0.0000
  44 H           10.4810    -2.9978     2.5643 H            1    LIG   0.0000
  45 H           11.0796    -3.1584     1.0535 H            1    LIG   0.0000
  46 H            6.6112    -2.5602     0.1034 H            1    LIG   0.0000
  47 H            2.5110    -0.6569    -0.2764 H            1    LIG   0.0000
  48 H            2.9837     0.7239    -1.0090 H            1    LIG   0.0000
  49 H            0.5000     0.1340     1.0000 H            1    LIG   0.0000
  50 H           -3.5484     4.2111     1.0000 H            1    LIG   0.0000
  51 H           -3.3999     2.8047     0.1835 H            1    LIG   0.0000
  52 H           -3.3999     2.8047     1.8165 H            1    LIG   0.0000
  53 H           -1.6082     5.1365     2.2411 H            1    LIG   0.0000
  54 H           -1.4597     3.7301     3.0576 H            1    LIG   0.0000
  55 H           -0.1832     4.3389     2.2411 H            1    LIG   0.0000
  56 H           -1.6082     5.1365    -0.2411 H            1    LIG   0.0000
  57 H           -0.1832     4.3389    -0.2411 H            1    LIG   0.0000
  58 H           -1.4597     3.7301    -1.0576 H            1    LIG   0.0000
  59 H            1.8221    -0.4795     4.4698 H            1    LIG   0.0000
  60 H            1.6935     0.7456     6.5193 H            1    LIG   0.0000
  61 H            2.7199     2.8971     6.7133 H            1    LIG   0.0000
  62 H            4.0226     2.6106     2.7795 H            1    LIG   0.0000
  63 H            5.0293     0.7415     2.0371 H            1    LIG   0.0000
  64 H            4.8071    -0.8756     2.0845 H            1    LIG   0.0000
  65 H            9.5612     2.3352     0.7517 H            1    LIG   0.0000
@<TRIPOS>BOND
   1        1        2 1
   2        2        3 ar
   3        3        4 ar
   4        4        5 1
   5        4        6 ar
   6        6        7 1
   7        7        8 1
   8        8        9 2
   9        9       10 1
  10       10       11 2
  11       10       12 am
  12       12       13 1
  13       13       14 1
  14       14       15 1
  15       15       16 am
  16       16       17 2
  17       16       18 1
  18       18       19 1
  19       19       20 1
  20       19       21 1
  21       19       22 1
  22       14       23 1
  23       23       24 1
  24       24       25 ar
  25       25       26 ar
  26       26       27 ar
  27       27       28 ar
  28       28       29 1
  29       28       30 ar
  30       30       24 ar
  31       23       31 1
  32       31       12 1
  33        9       32 1
  34       32       33 2
  35       32       34 1
  36       34        6 ar
  37       34       35 ar
  38       35        2 ar
  39        7       36 1
  40       14       37 1
  41       23       38 1
  42        1       39 1
  43        1       40 1
  44        1       41 1
  45        3       42 1
  46        5       43 1
  47        5       44 1
  48        5       45 1
  49        8       46 1
  50       13       47 1
  51       13       48 1
  52       15       49 1
  53       20       50 1
  54       20       51 1
  55       20       52 1
  56       21       53 1
  57       21       54 1
  58       21       55 1
  59       22       56 1
  60       22       57 1
  61       22       58 1
  62       25       59 1
  63       26       60 1
  64       27       61 1
  65       30       62 1
  66       31       63 1
  67       31       64 1
  68       35       65 1

@<TRIPOS>MOLECULE

  65   68
SMALL
USER_CHARGES
@<TRIPOS>ATOM
   1 C1          10.6314    -4.9649     1.9511 C.3          1    LIG   0.0000
   2 C2          10.2107    -3.5408     1.6333 C.ar         1    LIG   0.0000
   3 C3          11.0610    -2.4632     1.8561 C.ar         1    LIG   0.0000
   4 C4          10.6184    -1.1818     1.5443 C.ar         1    LIG   0.0000
   5 C5          11.5758    -0.0281     1.8011 C.3          1    LIG   0.0000
   6 C6           9.3451    -0.9724     1.0175 C.ar         1    LIG   0.0000
   7 N7           8.9016     0.2903     0.7066 N.pl3        1    LIG   0.0000
   8 C8           7.6556     0.5305     0.1872 C.2          1    LIG   0.0000
   9 C9           6.7958    -0.5122    -0.0421 C.2          1    LIG   0.0000
  10 C10          5.4735    -0.2790    -0.5909 C.2          1    LIG   0.0000
  11 O11          5.3075    -0.2849    -1.7793 O.2          1    LIG   0.0000
  12 N12          4.3912    -0.0471     0.2658 N.am         1    LIG   0.0000
  13 C13          3.0140     0.1993    -0.1582 C.3          1    LIG   0.0000
  14 C14          2.4701     1.0000     1.0000 C.3          1    LIG   0.0000
  15 N15          1.0000     1.0000     1.0000 N.am         1    LIG   0.0000
  16 C16          0.3150     2.1865     1.0000 C.2          1    LIG   0.0000
  17 O17          0.9150     3.2257     1.0000 O.2          1    LIG   0.0000
  18 O18         -0.9950     2.1865     1.0000 O.3          1    LIG   0.0000
  19 C19         -1.6063     3.4681     1.0000 C.3          1    LIG   0.0000
  20 C20         -3.1179     3.3085     1.0000 C.3          1    LIG   0.0000
  21 C21         -1.1777     4.2339     2.2411 C.3          1    LIG   0.0000
  22 C22         -1.1777     4.2339    -0.2411 C.3          1    LIG   0.0000
  23 C23          3.0158     0.1973     2.1604 C.3          1    LIG   0.0000
  24 C24          2.9314     0.9713     3.4659 C.ar         1    LIG   0.0000
  25 C25          2.2525     0.4198     4.5471 C.ar         1    LIG   0.0000
  26 C26          2.1801     1.1357     5.7376 C.ar         1    LIG   0.0000
  27 C27          2.7759     2.3871     5.8549 C.ar         1    LIG   0.0000
  28 C28          3.4506     2.9189     4.7609 C.ar         1    LIG   0.0000
  29 F29          4.0242     4.1146     4.8605 F            1    LIG   0.0000
  30 C30          3.5354     2.2208     3.5610 C.ar         1    LIG   0.0000
  31 C31          4.4516    -0.0127     1.7251 C.3          1    LIG   0.0000
  32 C32          7.1967    -1.8415     0.2582 C.2          1    LIG   0.0000
  33 O33          6.4140    -2.7562     0.0450 O.2          1    LIG   0.0000
  34 C34          8.4956    -2.0551     0.7956 C.ar         1    LIG   0.0000
  35 C35          8.9415    -3.3360     1.1082 C.ar         1    LIG   0.0000
  36 H            9.5125     1.0658     0.8656 H            1    LIG   0.0000
  37 H            2.8334     1.9317     1.0000 H            1    LIG   0.0000
  38 H            2.5393    -0.6784     2.2383 H            1    LIG   0.0000
  39 H           11.5610    -4.9635     2.3197 H            1    LIG   0.0000
  40 H           10.0055    -5.3545     2.6268 H            1    LIG   0.0000
  41 H           10.6047    -5.5146     1.1162 H            1    LIG   0.0000
  42 H           11.9755    -2.6070     2.2342 H            1    LIG   0.0000
  43 H           12.4315    -0.3827     2.1779 H            1    LIG   0.0000
  44 H           11.7620     0.4481     0.9417 H            1    LIG   0.0000
  45 H           11.1633     0.6087     2.4524 H            1    LIG   0.0000
  46 H            7.3741     1.4664    -0.0242 H            1    LIG   0.0000
  47 H            2.5110    -0.6569    -0.2764 H            1    LIG   0.0000
  48 H            2.9837     0.7239    -1.0090 H            1    LIG   0.0000
  49 H            0.5000     0.1340     1.0000 H            1    LIG   0.0000
  50 H           -3.5484     4.2111     1.0000 H            1    LIG   0.0000
  51 H           -3.3999     2.8047     0.1835 H            1    LIG   0.0000
  52 H           -3.3999     2.8047     1.8165 H            1    LIG   0.0000
  53 H           -1.6082     5.1365     2.2411 H            1    LIG   0.0000
  54 H           -1.4597     3.7301     3.0576 H            1    LIG   0.0000
  55 H           -0.1832     4.3389     2.2411 H            1    LIG   0.0000
  56 H           -1.6082     5.1365    -0.2411 H            1    LIG   0.0000
  57 H           -0.1832     4.3389    -0.2411 H            1    LIG   0.0000
  58 H           -1.4597     3.7301    -1.0576 H            1    LIG   0.0000
  59 H            1.8221    -0.4795     4.4698 H            1    LIG   0.0000
  60 H            1.6935     0.7456     6.5193 H            1    LIG   0.0000
  61 H            2.7199     2.8971     6.7133 H            1    LIG   0.0000
  62 H            4.0226     2.6106     2.7795 H            1    LIG   0.0000
  63 H            5.0293     0.7415     2.0371 H            1    LIG   0.0000
  64 H            4.8071    -0.8756     2.0845 H            1    LIG   0.0000
  65 H            8.3398    -4.1194     0.9525 H            1    LIG   0.0000
@<TRIPOS>BOND
   1        1        2 1
   2        2        3 ar
   3        3        4 ar
   4        4        5 1
   5        4        6 ar
   6        6        7 1
   7        7        8 1
   8        8        9 2
   9        9       10 1
  10       10       11 2
  11       10       12 am
  12       12       13 1
  13       13       14 1
  14       14       15 1
  15       15       16 am
  16       16       17 2
  17       16       18 1
  18       18       19 1
  19       19       20 1
  20       19       21 1
  21       19       22 1
  22       14       23 1
  23       23       24 1
  24       24       25 ar
  25       25       26 ar
  26       26       27 ar
  27       27       28 ar
  28       28       29 1
  29       28       30 ar
  30       30       24 ar
  31       23       31 1
  32       31       12 1
  33        9       32 1
  34       32       33 2
  35       32       34 1
  36       34        6 ar
  37       34       35 ar
  38       35        2 ar
  39        7       36 1
  40       14       37 1
  41       23       38 1
  42        1       39 1
  43        1       40 1
  44        1       41 1
  45        3       42 1
  46        5       43 1
  47        5       44 1
  48        5       45 1
  49        8       46 1
  50       13       47 1
  51       13       48 1
  52       15       49 1
  53       20       50 1
  54       20       51 1
  55       20       52 1
  56       21       53 1
  57       21       54 1
  58       21       55 1
  59       22       56 1
  60       22       57 1
  61       22       58 1
  62       25       59 1
  63       26       60 1
  64       27       61 1
  65       30       62 1
  66       31       63 1
  67       31       64 1
  68       35       65 1

@<TRIPOS>MOLECULE

  65   68
SMALL
USER_CHARGES
@<TRIPOS>ATOM
   1 C1           3.8933     7.8500    -5.2494 C.3          1    LIG   0.0000
   2 C2           4.2424     7.4033    -3.8405 C.ar         1    LIG   0.0000
   3 C3           4.3730     8.3150    -2.7986 C.ar         1    LIG   0.0000
   4 C4           4.6941     7.8445    -1.5296 C.ar         1    LIG   0.0000
   5 C5           4.8281     8.8707    -0.4151 C.3          1    LIG   0.0000
   6 C6           4.8841     6.4834    -1.2975 C.ar         1    LIG   0.0000
   7 N7           5.2008     6.0114    -0.0466 N.pl3        1    LIG   0.0000
   8 C8           5.3941     4.6795     0.2153 C.2          1    LIG   0.0000
   9 C9           5.2728     3.7581    -0.7923 C.2          1    LIG   0.0000
  10 C10          5.4735     2.3446    -0.5358 C.2          1    LIG   0.0000
  11 O11          6.5674     1.8640    -0.6469 O.2          1    LIG   0.0000
  12 N12          4.3912     1.5412    -0.1587 N.am         1    LIG   0.0000
  13 C13          3.0140     2.0016     0.0104 C.3          1    LIG   0.0000
  14 C14          2.4701     1.0000     1.0000 C.3          1    LIG   0.0000
  15 N15          1.0000     1.0000     1.0000 N.am         1    LIG   0.0000
  16 C16          0.3150     2.1865     1.0000 C.2          1    LIG   0.0000
  17 O17          0.9150     3.2257     1.0000 O.2          1    LIG   0.0000
  18 O18         -0.9950     2.1865     1.0000 O.3          1    LIG   0.0000
  19 C19         -1.6063     3.4681     1.0000 C.3          1    LIG   0.0000
  20 C20         -3.1179     3.3085     1.0000 C.3          1    LIG   0.0000
  21 C21         -1.1777     4.2339     2.2411 C.3          1    LIG   0.0000
  22 C22         -1.1777     4.2339    -0.2411 C.3          1    LIG   0.0000
  23 C23          3.0158    -0.2821     0.4110 C.3          1    LIG   0.0000
  24 C24          2.9314    -1.4335     1.4000 C.ar         1    LIG   0.0000
  25 C25          3.5342    -1.3113     2.6472 C.ar         1    LIG   0.0000
  26 C26          3.4523    -2.3703     3.5454 C.ar         1    LIG   0.0000
  27 C27          2.7783    -3.5399     3.2098 C.ar         1    LIG   0.0000
  28 C28          2.1820    -3.6397     1.9571 C.ar         1    LIG   0.0000
  29 F29          1.5349    -4.7529     1.6243 F            1    LIG   0.0000
  30 C30          2.2515    -2.5934     1.0433 C.ar         1    LIG   0.0000
  31 C31          4.4516     0.1100     0.1286 C.3          1    LIG   0.0000
  32 C32          4.9464     4.1839    -2.1076 C.2          1    LIG   0.0000
  33 O33          4.8426     3.3448    -2.9907 O.2          1    LIG   0.0000
  34 C34          4.7525     5.5725    -2.3444 C.ar         1    LIG   0.0000
  35 C35          4.4307     6.0464    -3.6129 C.ar         1    LIG   0.0000
  36 H            5.2940     6.6660     0.7035 H            1    LIG   0.0000
  37 H            2.8334     1.1618     1.9175 H            1    LIG   0.0000
  38 H            2.5393    -0.5109    -0.4379 H            1    LIG   0.0000
  39 H            3.7874     8.8442    -5.2673 H            1    LIG   0.0000
  40 H            4.6255     7.5814    -5.8753 H            1    LIG   0.0000
  41 H            3.0371     7.4184    -5.5333 H            1    LIG   0.0000
  42 H            4.2382     9.2928    -2.9590 H            1    LIG   0.0000
  43 H            4.6553     9.7851    -0.7813 H            1    LIG   0.0000
  44 H            4.1643     8.6692     0.3052 H            1    LIG   0.0000
  45 H            5.7528     8.8327    -0.0363 H            1    LIG   0.0000
  46 H            5.6236     4.3803     1.1414 H            1    LIG   0.0000
  47 H            2.5110     1.9693    -0.8534 H            1    LIG   0.0000
  48 H            2.9837     2.9306     0.3792 H            1    LIG   0.0000
  49 H            0.5000     0.1340     1.0000 H            1    LIG   0.0000
  50 H           -3.5484     4.2111     1.0000 H            1    LIG   0.0000
  51 H           -3.3999     2.8047     0.1835 H            1    LIG   0.0000
  52 H           -3.3999     2.8047     1.8165 H            1    LIG   0.0000
  53 H           -1.6082     5.1365     2.2411 H            1    LIG   0.0000
  54 H           -1.4597     3.7301     3.0576 H            1    LIG   0.0000
  55 H           -0.1832     4.3389     2.2411 H            1    LIG   0.0000
  56 H           -1.6082     5.1365    -0.2411 H            1    LIG   0.0000
  57 H           -0.1832     4.3389    -0.2411 H            1    LIG   0.0000
  58 H           -1.4597     3.7301    -1.0576 H            1    LIG   0.0000
  59 H            4.0202    -0.4732     2.8951 H            1    LIG   0.0000
  60 H            3.8835    -2.2898     4.4441 H            1    LIG   0.0000
  61 H            2.7233    -4.2979     3.8597 H            1    LIG   0.0000
  62 H            1.8198    -2.6737     0.1449 H            1    LIG   0.0000
  63 H            5.0293    -0.0662     0.9255 H            1    LIG   0.0000
  64 H            4.8071    -0.3937    -0.6588 H            1    LIG   0.0000
  65 H            4.3337     5.4010    -4.3706 H            1    LIG   0.0000
@<TRIPOS>BOND
   1        1        2 1
   2        2        3 ar
   3        3        4 ar
   4        4        5 1
   5        4        6 ar
   6        6        7 1
   7        7        8 1
   8        8        9 2
   9        9       10 1
  10       10       11 2
  11       10       12 am
  12       12       13 1
  13       13       14 1
  14       14       15 1
  15       15       16 am
  16       16       17 2
  17       16       18 1
  18       18       19 1
  19       19       20 1
  20       19       21 1
  21       19       22 1
  22       14       23 1
  23       23       24 1
  24       24       25 ar
  25       25       26 ar
  26       26       27 ar
  27       27       28 ar
  28       28       29 1
  29       28       30 ar
  30       30       24 ar
  31       23       31 1
  32       31       12 1
  33        9       32 1
  34       32       33 2
  35       32       34 1
  36       34        6 ar
  37       34       35 ar
  38       35        2 ar
  39        7       36 1
  40       14       37 1
  41       23       38 1
  42        1       39 1
  43        1       40 1
  44        1       41 1
  45        3       42 1
  46        5       43 1
  47        5       44 1
  48        5       45 1
  49        8       46 1
  50       13       47 1
  51       13       48 1
  52       15       49 1
  53       20       50 1
  54       20       51 1
  55       20       52 1
  56       21       53 1
  57       21       54 1
  58       21       55 1
  59       22       56 1
  60       22       57 1
  61       22       58 1
  62       25       59 1
  63       26       60 1
  64       27       61 1
  65       30       62 1
  66       31       63 1
  67       31       64 1
  68       35       65 1

@<TRIPOS>MOLECULE

  65   68
SMALL
USER_CHARGES
@<TRIPOS>ATOM
   1 C1           1.9699    -2.1908    -7.7211 C.3          1    LIG   0.0000
   2 C2           3.0063    -1.9125    -6.6465 C.ar         1    LIG   0.0000
   3 C3           4.2732    -1.4343    -6.9627 C.ar         1    LIG   0.0000
   4 C4           5.1790    -1.1983    -5.9337 C.ar         1    LIG   0.0000
   5 C5           6.5546    -0.6751    -6.3177 C.3          1    LIG   0.0000
   6 C6           4.8310    -1.4350    -4.6050 C.ar         1    LIG   0.0000
   7 N7           5.7202    -1.2035    -3.5835 N.pl3        1    LIG   0.0000
   8 C8           5.4097    -1.4257    -2.2668 C.2          1    LIG   0.0000
   9 C9           4.1688    -1.8977    -1.9253 C.2          1    LIG   0.0000
  10 C10          3.8208    -2.1394    -0.5381 C.2          1    LIG   0.0000
  11 O11          4.0249    -3.2151    -0.0469 O.2          1    LIG   0.0000
  12 N12          3.2453    -1.1154     0.2296 N.am         1    LIG   0.0000
  13 C13          2.9474     0.2495    -0.2236 C.3          1    LIG   0.0000
  14 C14          2.4712     1.0000     1.0000 C.3          1    LIG   0.0000
  15 N15          1.0000     1.0000     1.0000 N.am         1    LIG   0.0000
  16 C16          0.3150     2.1865     1.0000 C.2          1    LIG   0.0000
  17 O17          0.9150     3.2257     1.0000 O.2          1    LIG   0.0000
  18 O18         -0.9950     2.1865     1.0000 O.3          1    LIG   0.0000
  19 C19         -1.6063     3.4681     1.0000 C.3          1    LIG   0.0000
  20 C20         -3.1179     3.3085     1.0000 C.3          1    LIG   0.0000
  21 C21         -1.1777     4.2339     2.2411 C.3          1    LIG   0.0000
  22 C22         -1.1777     4.2339    -0.2411 C.3          1    LIG   0.0000
  23 C23          3.0252     0.1982     2.1590 C.3          1    LIG   0.0000
  24 C24          4.4908     0.5057     2.4201 C.ar         1    LIG   0.0000
  25 C25          4.8863     0.9387     3.6811 C.ar         1    LIG   0.0000
  26 C26          6.2295     1.2181     3.9105 C.ar         1    LIG   0.0000
  27 C27          7.1721     1.0693     2.8986 C.ar         1    LIG   0.0000
  28 C28          6.7542     0.6340     1.6453 C.ar         1    LIG   0.0000
  29 F29          7.6458     0.4879     0.6694 F            1    LIG   0.0000
  30 C30          5.4163     0.3489     1.3935 C.ar         1    LIG   0.0000
  31 C31          2.8423    -1.2088     1.6358 C.3          1    LIG   0.0000
  32 C32          3.2050    -2.1560    -2.9364 C.2          1    LIG   0.0000
  33 O33          2.1045    -2.5759    -2.6091 O.2          1    LIG   0.0000
  34 C34          3.5601    -1.9144    -4.2919 C.ar         1    LIG   0.0000
  35 C35          2.6559    -2.1492    -5.3237 C.ar         1    LIG   0.0000
  36 H            6.6312    -0.8587    -3.8098 H            1    LIG   0.0000
  37 H            2.8287     1.9339     1.0081 H            1    LIG   0.0000
  38 H            2.4795     0.3438     2.9843 H            1    LIG   0.0000
  39 H            2.3552    -1.9777    -8.6189 H            1    LIG   0.0000
  40 H            1.7092    -3.1558    -7.6908 H            1    LIG   0.0000
  41 H            1.1630    -1.6223    -7.5611 H            1    LIG   0.0000
  42 H            4.5289    -1.2629    -7.9141 H            1    LIG   0.0000
  43 H            6.6069    -0.5724    -7.3110 H            1    LIG   0.0000
  44 H            6.7073     0.2121    -5.8823 H            1    LIG   0.0000
  45 H            7.2542    -1.3212    -6.0121 H            1    LIG   0.0000
  46 H            6.0884    -1.2435    -1.5554 H            1    LIG   0.0000
  47 H            2.2324     0.2353    -0.9226 H            1    LIG   0.0000
  48 H            3.7698     0.6791    -0.5966 H            1    LIG   0.0000
  49 H            0.5000     0.1340     1.0000 H            1    LIG   0.0000
  50 H           -3.5484     4.2111     1.0000 H            1    LIG   0.0000
  51 H           -3.3999     2.8047     0.1835 H            1    LIG   0.0000
  52 H           -3.3999     2.8047     1.8165 H            1    LIG   0.0000
  53 H           -1.6082     5.1365     2.2411 H            1    LIG   0.0000
  54 H           -1.4597     3.7301     3.0576 H            1    LIG   0.0000
  55 H           -0.1832     4.3389     2.2411 H            1    LIG   0.0000
  56 H           -1.6082     5.1365    -0.2411 H            1    LIG   0.0000
  57 H           -0.1832     4.3389    -0.2411 H            1    LIG   0.0000
  58 H           -1.4597     3.7301    -1.0576 H            1    LIG   0.0000
  59 H            4.2139     1.0477     4.4133 H            1    LIG   0.0000
  60 H            6.5213     1.5301     4.8147 H            1    LIG   0.0000
  61 H            8.1362     1.2723     3.0695 H            1    LIG   0.0000
  62 H            5.1246     0.0363     0.4895 H            1    LIG   0.0000
  63 H            3.4261    -1.8517     2.1315 H            1    LIG   0.0000
  64 H            1.8878    -1.4965     1.7142 H            1    LIG   0.0000
  65 H            1.7416    -2.4929    -5.1095 H            1    LIG   0.0000
@<TRIPOS>BOND
   1        1        2 1
   2        2        3 ar
   3        3        4 ar
   4        4        5 1
   5        4        6 ar
   6        6        7 1
   7        7        8 1
   8        8        9 2
   9        9       10 1
  10       10       11 2
  11       10       12 am
  12       12       13 1
  13       13       14 1
  14       14       15 1
  15       15       16 am
  16       16       17 2
  17       16       18 1
  18       18       19 1
  19       19       20 1
  20       19       21 1
  21       19       22 1
  22       14       23 1
  23       23       24 1
  24       24       25 ar
  25       25       26 ar
  26       26       27 ar
  27       27       28 ar
  28       28       29 1
  29       28       30 ar
  30       30       24 ar
  31       23       31 1
  32       31       12 1
  33        9       32 1
  34       32       33 2
  35       32       34 1
  36       34        6 ar
  37       34       35 ar
  38       35        2 ar
  39        7       36 1
  40       14       37 1
  41       23       38 1
  42        1       39 1
  43        1       40 1
  44        1       41 1
  45        3       42 1
  46        5       43 1
  47        5       44 1
  48        5       45 1
  49        8       46 1
  50       13       47 1
  51       13       48 1
  52       15       49 1
  53       20       50 1
  54       20       51 1
  55       20       52 1
  56       21       53 1
  57       21       54 1
  58       21       55 1
  59       22       56 1
  60       22       57 1
  61       22       58 1
  62       25       59 1
  63       26       60 1
  64       27       61 1
  65       30       62 1
  66       31       63 1
  67       31       64 1
  68       35       65 1

@<TRIPOS>MOLECULE

  65   68
SMALL
USER_CHARGES
@<TRIPOS>ATOM
   1 C1           8.7514     0.0506    -5.6289 C.3          1    LIG   0.0000
   2 C2           7.3634    -0.4719    -5.3021 C.ar         1    LIG   0.0000
   3 C3           6.4258    -0.7214    -6.2984 C.ar         1    LIG   0.0000
   4 C4           5.1709    -1.1998    -5.9360 C.ar         1    LIG   0.0000
   5 C5           4.1717    -1.4616    -7.0526 C.3          1    LIG   0.0000
   6 C6           4.8500    -1.4277    -4.5990 C.ar         1    LIG   0.0000
   7 N7           3.6128    -1.9008    -4.2338 N.pl3        1    LIG   0.0000
   8 C8           3.2654    -2.1354    -2.9285 C.2          1    LIG   0.0000
   9 C9           4.1688    -1.8977    -1.9253 C.2          1    LIG   0.0000
  10 C10          3.8208    -2.1394    -0.5381 C.2          1    LIG   0.0000
  11 O11          4.0249    -3.2151    -0.0469 O.2          1    LIG   0.0000
  12 N12          3.2453    -1.1154     0.2296 N.am         1    LIG   0.0000
  13 C13          2.9474     0.2495    -0.2236 C.3          1    LIG   0.0000
  14 C14          2.4712     1.0000     1.0000 C.3          1    LIG   0.0000
  15 N15          1.0000     1.0000     1.0000 N.am         1    LIG   0.0000
  16 C16          0.3150     2.1865     1.0000 C.2          1    LIG   0.0000
  17 O17          0.9150     3.2257     1.0000 O.2          1    LIG   0.0000
  18 O18         -0.9950     2.1865     1.0000 O.3          1    LIG   0.0000
  19 C19         -1.6063     3.4681     1.0000 C.3          1    LIG   0.0000
  20 C20         -3.1179     3.3085     1.0000 C.3          1    LIG   0.0000
  21 C21         -1.1777     4.2339     2.2411 C.3          1    LIG   0.0000
  22 C22         -1.1777     4.2339    -0.2411 C.3          1    LIG   0.0000
  23 C23          3.0252     0.1982     2.1590 C.3          1    LIG   0.0000
  24 C24          4.4908     0.5057     2.4201 C.ar         1    LIG   0.0000
  25 C25          4.8863     0.9387     3.6811 C.ar         1    LIG   0.0000
  26 C26          6.2295     1.2181     3.9105 C.ar         1    LIG   0.0000
  27 C27          7.1721     1.0693     2.8986 C.ar         1    LIG   0.0000
  28 C28          6.7542     0.6340     1.6453 C.ar         1    LIG   0.0000
  29 F29          7.6458     0.4879     0.6694 F            1    LIG   0.0000
  30 C30          5.4163     0.3489     1.3935 C.ar         1    LIG   0.0000
  31 C31          2.8423    -1.2088     1.6358 C.3          1    LIG   0.0000
  32 C32          5.4651    -1.4086    -2.2391 C.2          1    LIG   0.0000
  33 O33          6.2550    -1.2044    -1.3286 O.2          1    LIG   0.0000
  34 C34          5.7924    -1.1763    -3.6032 C.ar         1    LIG   0.0000
  35 C35          7.0473    -0.6980    -3.9689 C.ar         1    LIG   0.0000
  36 H            2.9381    -2.0814    -4.9495 H            1    LIG   0.0000
  37 H            2.8287     1.9339     1.0081 H            1    LIG   0.0000
  38 H            2.4795     0.3438     2.9843 H            1    LIG   0.0000
  39 H            8.8396     0.1663    -6.6183 H            1    LIG   0.0000
  40 H            8.8910     0.9314    -5.1765 H            1    LIG   0.0000
  41 H            9.4374    -0.6019    -5.3071 H            1    LIG   0.0000
  42 H            6.6500    -0.5596    -7.2594 H            1    LIG   0.0000
  43 H            4.5897    -1.2378    -7.9331 H            1    LIG   0.0000
  44 H            3.9078    -2.4261    -7.0444 H            1    LIG   0.0000
  45 H            3.3609    -0.8929    -6.9144 H            1    LIG   0.0000
  46 H            2.3529    -2.4800    -2.7082 H            1    LIG   0.0000
  47 H            2.2324     0.2353    -0.9226 H            1    LIG   0.0000
  48 H            3.7698     0.6791    -0.5966 H            1    LIG   0.0000
  49 H            0.5000     0.1340     1.0000 H            1    LIG   0.0000
  50 H           -3.5484     4.2111     1.0000 H            1    LIG   0.0000
  51 H           -3.3999     2.8047     0.1835 H            1    LIG   0.0000
  52 H           -3.3999     2.8047     1.8165 H            1    LIG   0.0000
  53 H           -1.6082     5.1365     2.2411 H            1    LIG   0.0000
  54 H           -1.4597     3.7301     3.0576 H            1    LIG   0.0000
  55 H           -0.1832     4.3389     2.2411 H            1    LIG   0.0000
  56 H           -1.6082     5.1365    -0.2411 H            1    LIG   0.0000
  57 H           -0.1832     4.3389    -0.2411 H            1    LIG   0.0000
  58 H           -1.4597     3.7301    -1.0576 H            1    LIG   0.0000
  59 H            4.2139     1.0477     4.4133 H            1    LIG   0.0000
  60 H            6.5213     1.5301     4.8147 H            1    LIG   0.0000
  61 H            8.1362     1.2723     3.0695 H            1    LIG   0.0000
  62 H            5.1246     0.0363     0.4895 H            1    LIG   0.0000
  63 H            3.4261    -1.8517     2.1315 H            1    LIG   0.0000
  64 H            1.8878    -1.4965     1.7142 H            1    LIG   0.0000
  65 H            7.7306    -0.5148    -3.2621 H            1    LIG   0.0000
@<TRIPOS>BOND
   1        1        2 1
   2        2        3 ar
   3        3        4 ar
   4        4        5 1
   5        4        6 ar
   6        6        7 1
   7        7        8 1
   8        8        9 2
   9        9       10 1
  10       10       11 2
  11       10       12 am
  12       12       13 1
  13       13       14 1
  14       14       15 1
  15       15       16 am
  16       16       17 2
  17       16       18 1
  18       18       19 1
  19       19       20 1
  20       19       21 1
  21       19       22 1
  22       14       23 1
  23       23       24 1
  24       24       25 ar
  25       25       26 ar
  26       26       27 ar
  27       27       28 ar
  28       28       29 1
  29       28       30 ar
  30       30       24 ar
  31       23       31 1
  32       31       12 1
  33        9       32 1
  34       32       33 2
  35       32       34 1
  36       34        6 ar
  37       34       35 ar
  38       35        2 ar
  39        7       36 1
  40       14       37 1
  41       23       38 1
  42        1       39 1
  43        1       40 1
  44        1       41 1
  45        3       42 1
  46        5       43 1
  47        5       44 1
  48        5       45 1
  49        8       46 1
  50       13       47 1
  51       13       48 1
  52       15       49 1
  53       20       50 1
  54       20       51 1
  55       20       52 1
  56       21       53 1
  57       21       54 1
  58       21       55 1
  59       22       56 1
  60       22       57 1
  61       22       58 1
  62       25       59 1
  63       26       60 1
  64       27       61 1
  65       30       62 1
  66       31       63 1
  67       31       64 1
  68       35       65 1

@<TRIPOS>MOLECULE

  65   68
SMALL
USER_CHARGES
@<TRIPOS>ATOM
   1 C1           8.3028    -6.7702     3.1349 C.3          1    LIG   0.0000
   2 C2           6.9663    -6.5144     2.4607 C.ar         1    LIG   0.0000
   3 C3           5.9811    -7.4941     2.4010 C.ar         1    LIG   0.0000
   4 C4           4.7771    -7.1993     1.7700 C.ar         1    LIG   0.0000
   5 C5           3.7233    -8.2952     1.7246 C.3          1    LIG   0.0000
   6 C6           4.5535    -5.9455     1.2038 C.ar         1    LIG   0.0000
   7 N7           3.3665    -5.6471     0.5795 N.pl3        1    LIG   0.0000
   8 C8           3.1148    -4.4243     0.0128 C.2          1    LIG   0.0000
   9 C9           4.0675    -3.4397     0.0556 C.2          1    LIG   0.0000
  10 C10          3.8208    -2.1394    -0.5381 C.2          1    LIG   0.0000
  11 O11          4.1087    -1.9395    -1.6857 O.2          1    LIG   0.0000
  12 N12          3.2453    -1.1154     0.2296 N.am         1    LIG   0.0000
  13 C13          2.9474     0.2495    -0.2236 C.3          1    LIG   0.0000
  14 C14          2.4712     1.0000     1.0000 C.3          1    LIG   0.0000
  15 N15          1.0000     1.0000     1.0000 N.am         1    LIG   0.0000
  16 C16          0.3150     2.1865     1.0000 C.2          1    LIG   0.0000
  17 O17          0.9150     3.2257     1.0000 O.2          1    LIG   0.0000
  18 O18         -0.9950     2.1865     1.0000 O.3          1    LIG   0.0000
  19 C19         -1.6063     3.4681     1.0000 C.3          1    LIG   0.0000
  20 C20         -3.1179     3.3085     1.0000 C.3          1    LIG   0.0000
  21 C21         -1.1777     4.2339     2.2411 C.3          1    LIG   0.0000
  22 C22         -1.1777     4.2339    -0.2411 C.3          1    LIG   0.0000
  23 C23          3.0252     0.1982     2.1590 C.3          1    LIG   0.0000
  24 C24          4.4908     0.5057     2.4201 C.ar         1    LIG   0.0000
  25 C25          4.8863     0.9387     3.6811 C.ar         1    LIG   0.0000
  26 C26          6.2295     1.2181     3.9105 C.ar         1    LIG   0.0000
  27 C27          7.1721     1.0693     2.8986 C.ar         1    LIG   0.0000
  28 C28          6.7542     0.6340     1.6453 C.ar         1    LIG   0.0000
  29 F29          7.6458     0.4879     0.6694 F            1    LIG   0.0000
  30 C30          5.4163     0.3489     1.3935 C.ar         1    LIG   0.0000
  31 C31          2.8423    -1.2088     1.6358 C.3          1    LIG   0.0000
  32 C32          5.3154    -3.6869     0.6878 C.2          1    LIG   0.0000
  33 O33          6.1502    -2.7942     0.7149 O.2          1    LIG   0.0000
  34 C34          5.5434    -4.9661     1.2655 C.ar         1    LIG   0.0000
  35 C35          6.7469    -5.2639     1.8980 C.ar         1    LIG   0.0000
  36 H            2.6570    -6.3505     0.5368 H            1    LIG   0.0000
  37 H            2.8287     1.9339     1.0081 H            1    LIG   0.0000
  38 H            2.4795     0.3438     2.9843 H            1    LIG   0.0000
  39 H            8.3224    -7.7039     3.4926 H            1    LIG   0.0000
  40 H            9.0398    -6.6528     2.4693 H            1    LIG   0.0000
  41 H            8.4263    -6.1225     3.8867 H            1    LIG   0.0000
  42 H            6.1358    -8.3956     2.8051 H            1    LIG   0.0000
  43 H            4.0728    -9.1129     2.1819 H            1    LIG   0.0000
  44 H            2.8956    -7.9812     2.1897 H            1    LIG   0.0000
  45 H            3.5086    -8.5119     0.7722 H            1    LIG   0.0000
  46 H            2.2361    -4.2507    -0.4318 H            1    LIG   0.0000
  47 H            2.2324     0.2353    -0.9226 H            1    LIG   0.0000
  48 H            3.7698     0.6791    -0.5966 H            1    LIG   0.0000
  49 H            0.5000     0.1340     1.0000 H            1    LIG   0.0000
  50 H           -3.5484     4.2111     1.0000 H            1    LIG   0.0000
  51 H           -3.3999     2.8047     0.1835 H            1    LIG   0.0000
  52 H           -3.3999     2.8047     1.8165 H            1    LIG   0.0000
  53 H           -1.6082     5.1365     2.2411 H            1    LIG   0.0000
  54 H           -1.4597     3.7301     3.0576 H            1    LIG   0.0000
  55 H           -0.1832     4.3389     2.2411 H            1    LIG   0.0000
  56 H           -1.6082     5.1365    -0.2411 H            1    LIG   0.0000
  57 H           -0.1832     4.3389    -0.2411 H            1    LIG   0.0000
  58 H           -1.4597     3.7301    -1.0576 H            1    LIG   0.0000
  59 H            4.2139     1.0477     4.4133 H            1    LIG   0.0000
  60 H            6.5213     1.5301     4.8147 H            1    LIG   0.0000
  61 H            8.1362     1.2723     3.0695 H            1    LIG   0.0000
  62 H            5.1246     0.0363     0.4895 H            1    LIG   0.0000
  63 H            3.4261    -1.8517     2.1315 H            1    LIG   0.0000
  64 H            1.8878    -1.4965     1.7142 H            1    LIG   0.0000
  65 H            7.4634    -4.5680     1.9478 H            1    LIG   0.0000
@<TRIPOS>BOND
   1        1        2 1
   2        2        3 ar
   3        3        4 ar
   4        4        5 1
   5        4        6 ar
   6        6        7 1
   7        7        8 1
   8        8        9 2
   9        9       10 1
  10       10       11 2
  11       10       12 am
  12       12       13 1
  13       13       14 1
  14       14       15 1
  15       15       16 am
  16       16       17 2
  17       16       18 1
  18       18       19 1
  19       19       20 1
  20       19       21 1
  21       19       22 1
  22       14       23 1
  23       23       24 1
  24       24       25 ar
  25       25       26 ar
  26       26       27 ar
  27       27       28 ar
  28       28       29 1
  29       28       30 ar
  30       30       24 ar
  31       23       31 1
  32       31       12 1
  33        9       32 1
  34       32       33 2
  35       32       34 1
  36       34        6 ar
  37       34       35 ar
  38       35        2 ar
  39        7       36 1
  40       14       37 1
  41       23       38 1
  42        1       39 1
  43        1       40 1
  44        1       41 1
  45        3       42 1
  46        5       43 1
  47        5       44 1
  48        5       45 1
  49        8       46 1
  50       13       47 1
  51       13       48 1
  52       15       49 1
  53       20       50 1
  54       20       51 1
  55       20       52 1
  56       21       53 1
  57       21       54 1
  58       21       55 1
  59       22       56 1
  60       22       57 1
  61       22       58 1
  62       25       59 1
  63       26       60 1
  64       27       61 1
  65       30       62 1
  66       31       63 1
  67       31       64 1
  68       35       65 1

@<TRIPOS>MOLECULE

  65   68
SMALL
USER_CHARGES
@<TRIPOS>ATOM
   1 C1           1.5220    -9.0128     1.0419 C.3          1    LIG   0.0000
   2 C2           2.6093    -7.9551     1.1163 C.ar         1    LIG   0.0000
   3 C3           3.8278    -8.2056     1.7377 C.ar         1    LIG   0.0000
   4 C4           4.7844    -7.1964     1.7733 C.ar         1    LIG   0.0000
   5 C5           6.1051    -7.5069     2.4609 C.3          1    LIG   0.0000
   6 C6           4.5338    -5.9516     1.1986 C.ar         1    LIG   0.0000
   7 N7           5.4742    -4.9503     1.2294 N.pl3        1    LIG   0.0000
   8 C8           5.2595    -3.7154     0.6739 C.2          1    LIG   0.0000
   9 C9           4.0675    -3.4397     0.0556 C.2          1    LIG   0.0000
  10 C10          3.8208    -2.1394    -0.5381 C.2          1    LIG   0.0000
  11 O11          4.1087    -1.9395    -1.6857 O.2          1    LIG   0.0000
  12 N12          3.2453    -1.1154     0.2296 N.am         1    LIG   0.0000
  13 C13          2.9474     0.2495    -0.2236 C.3          1    LIG   0.0000
  14 C14          2.4712     1.0000     1.0000 C.3          1    LIG   0.0000
  15 N15          1.0000     1.0000     1.0000 N.am         1    LIG   0.0000
  16 C16          0.3150     2.1865     1.0000 C.2          1    LIG   0.0000
  17 O17          0.9150     3.2257     1.0000 O.2          1    LIG   0.0000
  18 O18         -0.9950     2.1865     1.0000 O.3          1    LIG   0.0000
  19 C19         -1.6063     3.4681     1.0000 C.3          1    LIG   0.0000
  20 C20         -3.1179     3.3085     1.0000 C.3          1    LIG   0.0000
  21 C21         -1.1777     4.2339     2.2411 C.3          1    LIG   0.0000
  22 C22         -1.1777     4.2339    -0.2411 C.3          1    LIG   0.0000
  23 C23          3.0252     0.1982     2.1590 C.3          1    LIG   0.0000
  24 C24          4.4908     0.5057     2.4201 C.ar         1    LIG   0.0000
  25 C25          4.8863     0.9387     3.6811 C.ar         1    LIG   0.0000
  26 C26          6.2295     1.2181     3.9105 C.ar         1    LIG   0.0000
  27 C27          7.1721     1.0693     2.8986 C.ar         1    LIG   0.0000
  28 C28          6.7542     0.6340     1.6453 C.ar         1    LIG   0.0000
  29 F29          7.6458     0.4879     0.6694 F            1    LIG   0.0000
  30 C30          5.4163     0.3489     1.3935 C.ar         1    LIG   0.0000
  31 C31          2.8423    -1.2088     1.6358 C.3          1    LIG   0.0000
  32 C32          3.0553    -4.4343    -0.0095 C.2          1    LIG   0.0000
  33 O33          2.0003    -4.1668    -0.5664 O.2          1    LIG   0.0000
  34 C34          3.3111    -5.7042     0.5767 C.ar         1    LIG   0.0000
  35 C35          2.3561    -6.7162     0.5423 C.ar         1    LIG   0.0000
  36 H            6.3512    -5.1297     1.6752 H            1    LIG   0.0000
  37 H            2.8287     1.9339     1.0081 H            1    LIG   0.0000
  38 H            2.4795     0.3438     2.9843 H            1    LIG   0.0000
  39 H            1.8381    -9.8480     1.4918 H            1    LIG   0.0000
  40 H            0.6992    -8.6779     1.5009 H            1    LIG   0.0000
  41 H            1.3128    -9.2090     0.0839 H            1    LIG   0.0000
  42 H            4.0134    -9.0966     2.1521 H            1    LIG   0.0000
  43 H            6.0889    -8.4455     2.8055 H            1    LIG   0.0000
  44 H            6.8539    -7.4051     1.8059 H            1    LIG   0.0000
  45 H            6.2409    -6.8742     3.2233 H            1    LIG   0.0000
  46 H            5.9725    -3.0157     0.7198 H            1    LIG   0.0000
  47 H            2.2324     0.2353    -0.9226 H            1    LIG   0.0000
  48 H            3.7698     0.6791    -0.5966 H            1    LIG   0.0000
  49 H            0.5000     0.1340     1.0000 H            1    LIG   0.0000
  50 H           -3.5484     4.2111     1.0000 H            1    LIG   0.0000
  51 H           -3.3999     2.8047     0.1835 H            1    LIG   0.0000
  52 H           -3.3999     2.8047     1.8165 H            1    LIG   0.0000
  53 H           -1.6082     5.1365     2.2411 H            1    LIG   0.0000
  54 H           -1.4597     3.7301     3.0576 H            1    LIG   0.0000
  55 H           -0.1832     4.3389     2.2411 H            1    LIG   0.0000
  56 H           -1.6082     5.1365    -0.2411 H            1    LIG   0.0000
  57 H           -0.1832     4.3389    -0.2411 H            1    LIG   0.0000
  58 H           -1.4597     3.7301    -1.0576 H            1    LIG   0.0000
  59 H            4.2139     1.0477     4.4133 H            1    LIG   0.0000
  60 H            6.5213     1.5301     4.8147 H            1    LIG   0.0000
  61 H            8.1362     1.2723     3.0695 H            1    LIG   0.0000
  62 H            5.1246     0.0363     0.4895 H            1    LIG   0.0000
  63 H            3.4261    -1.8517     2.1315 H            1    LIG   0.0000
  64 H            1.8878    -1.4965     1.7142 H            1    LIG   0.0000
  65 H            1.4759    -6.5488     0.0983 H            1    LIG   0.0000
@<TRIPOS>BOND
   1        1        2 1
   2        2        3 ar
   3        3        4 ar
   4        4        5 1
   5        4        6 ar
   6        6        7 1
   7        7        8 1
   8        8        9 2
   9        9       10 1
  10       10       11 2
  11       10       12 am
  12       12       13 1
  13       13       14 1
  14       14       15 1
  15       15       16 am
  16       16       17 2
  17       16       18 1
  18       18       19 1
  19       19       20 1
  20       19       21 1
  21       19       22 1
  22       14       23 1
  23       23       24 1
  24       24       25 ar
  25       25       26 ar
  26       26       27 ar
  27       27       28 ar
  28       28       29 1
  29       28       30 ar
  30       30       24 ar
  31       23       31 1
  32       31       12 1
  33        9       32 1
  34       32       33 2
  35       32       34 1
  36       34        6 ar
  37       34       35 ar
  38       35        2 ar
  39        7       36 1
  40       14       37 1
  41       23       38 1
  42        1       39 1
  43        1       40 1
  44        1       41 1
  45        3       42 1
  46        5       43 1
  47        5       44 1
  48        5       45 1
  49        8       46 1
  50       13       47 1
  51       13       48 1
  52       15       49 1
  53       20       50 1
  54       20       51 1
  55       20       52 1
  56       21       53 1
  57       21       54 1
  58       21       55 1
  59       22       56 1
  60       22       57 1
  61       22       58 1
  62       25       59 1
  63       26       60 1
  64       27       61 1
  65       30       62 1
  66       31       63 1
  67       31       64 1
  68       35       65 1

@<TRIPOS>MOLECULE

  65   68
SMALL
USER_CHARGES
@<TRIPOS>ATOM
   1 C1          10.8628    -0.0151    -4.7101 C.3          1    LIG   0.0000
   2 C2           9.3517    -0.1530    -4.7728 C.ar         1    LIG   0.0000
   3 C3           8.7356    -1.0127    -5.6756 C.ar         1    LIG   0.0000
   4 C4           7.3470    -1.0954    -5.6848 C.ar         1    LIG   0.0000
   5 C5           6.7086    -2.0465    -6.6855 C.3          1    LIG   0.0000
   6 C6           6.5783    -0.3326    -4.8075 C.ar         1    LIG   0.0000
   7 N7           5.2066    -0.4098    -4.8104 N.pl3        1    LIG   0.0000
   8 C8           4.4216     0.3265    -3.9611 C.2          1    LIG   0.0000
   9 C9           5.0012     1.1828    -3.0611 C.2          1    LIG   0.0000
  10 C10          4.1884     1.9705    -2.1541 C.2          1    LIG   0.0000
  11 O11          3.8111     3.0619    -2.4805 O.2          1    LIG   0.0000
  12 N12          3.8441     1.4578    -0.8984 N.am         1    LIG   0.0000
  13 C13          3.0381     2.1206     0.1365 C.3          1    LIG   0.0000
  14 C14          2.4686     1.0000     1.0000 C.3          1    LIG   0.0000
  15 N15          1.0000     1.0000     1.0000 N.am         1    LIG   0.0000
  16 C16          0.3150     2.1865     1.0000 C.2          1    LIG   0.0000
  17 O17          0.9150     3.2257     1.0000 O.2          1    LIG   0.0000
  18 O18         -0.9950     2.1865     1.0000 O.3          1    LIG   0.0000
  19 C19         -1.6063     3.4681     1.0000 C.3          1    LIG   0.0000
  20 C20         -3.1179     3.3085     1.0000 C.3          1    LIG   0.0000
  21 C21         -1.1777     4.2339     2.2411 C.3          1    LIG   0.0000
  22 C22         -1.1777     4.2339    -0.2411 C.3          1    LIG   0.0000
  23 C23          3.0135    -0.2855     0.4094 C.3          1    LIG   0.0000
  24 C24          3.3527    -1.2876     1.5010 C.ar         1    LIG   0.0000
  25 C25          2.7730    -2.5514     1.4756 C.ar         1    LIG   0.0000
  26 C26          3.0890    -3.4615     2.4790 C.ar         1    LIG   0.0000
  27 C27          3.9722    -3.1215     3.4983 C.ar         1    LIG   0.0000
  28 C28          4.5410    -1.8521     3.5033 C.ar         1    LIG   0.0000
  29 F29          5.3868    -1.5149     4.4726 F            1    LIG   0.0000
  30 C30          4.2393    -0.9262     2.5102 C.ar         1    LIG   0.0000
  31 C31          4.2354     0.1468    -0.3755 C.3          1    LIG   0.0000
  32 C32          6.4154     1.3064    -3.0089 C.2          1    LIG   0.0000
  33 O33          6.9109     2.0756    -2.1980 O.2          1    LIG   0.0000
  34 C34          7.1995     0.5281    -3.9040 C.ar         1    LIG   0.0000
  35 C35          8.5891     0.6084    -3.8969 C.ar         1    LIG   0.0000
  36 H            4.7625    -1.0283    -5.4587 H            1    LIG   0.0000
  37 H            2.8007     1.1017     1.9377 H            1    LIG   0.0000
  38 H            2.3381    -0.6821    -0.2123 H            1    LIG   0.0000
  39 H           11.2809    -0.6163    -5.3910 H            1    LIG   0.0000
  40 H           11.1192     0.9326    -4.8999 H            1    LIG   0.0000
  41 H           11.1833    -0.2709    -3.7980 H            1    LIG   0.0000
  42 H            9.2817    -1.5623    -6.3078 H            1    LIG   0.0000
  43 H            7.4236    -2.4976    -7.2196 H            1    LIG   0.0000
  44 H            6.1734    -2.7351    -6.1962 H            1    LIG   0.0000
  45 H            6.1090    -1.5320    -7.2986 H            1    LIG   0.0000
  46 H            3.4262     0.2389    -3.9981 H            1    LIG   0.0000
  47 H            2.2986     2.6477    -0.2823 H            1    LIG   0.0000
  48 H            3.6101     2.7284     0.6874 H            1    LIG   0.0000
  49 H            0.5000     0.1340     1.0000 H            1    LIG   0.0000
  50 H           -3.5484     4.2111     1.0000 H            1    LIG   0.0000
  51 H           -3.3999     2.8047     0.1835 H            1    LIG   0.0000
  52 H           -3.3999     2.8047     1.8165 H            1    LIG   0.0000
  53 H           -1.6082     5.1365     2.2411 H            1    LIG   0.0000
  54 H           -1.4597     3.7301     3.0576 H            1    LIG   0.0000
  55 H           -0.1832     4.3389     2.2411 H            1    LIG   0.0000
  56 H           -1.6082     5.1365    -0.2411 H            1    LIG   0.0000
  57 H           -0.1832     4.3389    -0.2411 H            1    LIG   0.0000
  58 H           -1.4597     3.7301    -1.0576 H            1    LIG   0.0000
  59 H            2.1373    -2.8026     0.7456 H            1    LIG   0.0000
  60 H            2.6758    -4.3721     2.4674 H            1    LIG   0.0000
  61 H            4.1950    -3.7800     4.2171 H            1    LIG   0.0000
  62 H            4.6529    -0.0158     2.5214 H            1    LIG   0.0000
  63 H            5.0364     0.2212     0.2185 H            1    LIG   0.0000
  64 H            4.4300    -0.4932    -1.1189 H            1    LIG   0.0000
  65 H            9.0444     1.2226    -3.2524 H            1    LIG   0.0000
@<TRIPOS>BOND
   1        1        2 1
   2        2        3 ar
   3        3        4 ar
   4        4        5 1
   5        4        6 ar
   6        6        7 1
   7        7        8 1
   8        8        9 2
   9        9       10 1
  10       10       11 2
  11       10       12 am
  12       12       13 1
  13       13       14 1
  14       14       15 1
  15       15       16 am
  16       16       17 2
  17       16       18 1
  18       18       19 1
  19       19       20 1
  20       19       21 1
  21       19       22 1
  22       14       23 1
  23       23       24 1
  24       24       25 ar
  25       25       26 ar
  26       26       27 ar
  27       27       28 ar
  28       28       29 1
  29       28       30 ar
  30       30       24 ar
  31       23       31 1
  32       31       12 1
  33        9       32 1
  34       32       33 2
  35       32       34 1
  36       34        6 ar
  37       34       35 ar
  38       35        2 ar
  39        7       36 1
  40       14       37 1
  41       23       38 1
  42        1       39 1
  43        1       40 1
  44        1       41 1
  45        3       42 1
  46        5       43 1
  47        5       44 1
  48        5       45 1
  49        8       46 1
  50       13       47 1
  51       13       48 1
  52       15       49 1
  53       20       50 1
  54       20       51 1
  55       20       52 1
  56       21       53 1
  57       21       54 1
  58       21       55 1
  59       22       56 1
  60       22       57 1
  61       22       58 1
  62       25       59 1
  63       26       60 1
  64       27       61 1
  65       30       62 1
  66       31       63 1
  67       31       64 1
  68       35       65 1

@<TRIPOS>MOLECULE

  65   68
SMALL
USER_CHARGES
@<TRIPOS>ATOM
   1 C1          -0.9076    -6.1608     5.1571 C.3          1    LIG   0.0000
   2 C2           0.4234    -5.7922     4.5255 C.ar         1    LIG   0.0000
   3 C3           1.2086    -6.7387     3.8764 C.ar         1    LIG   0.0000
   4 C4           2.4182    -6.3397     3.3173 C.ar         1    LIG   0.0000
   5 C5           3.2497    -7.4022     2.6151 C.3          1    LIG   0.0000
   6 C6           2.8440    -5.0153     3.4020 C.ar         1    LIG   0.0000
   7 N7           4.0371    -4.6139     2.8515 N.pl3        1    LIG   0.0000
   8 C8           4.4848    -3.3197     2.9173 C.2          1    LIG   0.0000
   9 C9           3.7324    -2.3654     3.5515 C.2          1    LIG   0.0000
  10 C10          4.1884    -0.9908     3.6319 C.2          1    LIG   0.0000
  11 O11          4.8608    -0.6350     4.5600 O.2          1    LIG   0.0000
  12 N12          3.8441    -0.0795     2.6274 N.am         1    LIG   0.0000
  13 C13          3.0381    -0.3483     1.4281 C.3          1    LIG   0.0000
  14 C14          2.4686     1.0000     1.0000 C.3          1    LIG   0.0000
  15 N15          1.0000     1.0000     1.0000 N.am         1    LIG   0.0000
  16 C16          0.3150     2.1865     1.0000 C.2          1    LIG   0.0000
  17 O17          0.9150     3.2257     1.0000 O.2          1    LIG   0.0000
  18 O18         -0.9950     2.1865     1.0000 O.3          1    LIG   0.0000
  19 C19         -1.6063     3.4681     1.0000 C.3          1    LIG   0.0000
  20 C20         -3.1179     3.3085     1.0000 C.3          1    LIG   0.0000
  21 C21         -1.1777     4.2339     2.2411 C.3          1    LIG   0.0000
  22 C22         -1.1777     4.2339    -0.2411 C.3          1    LIG   0.0000
  23 C23          3.0135     2.0060     1.9946 C.3          1    LIG   0.0000
  24 C24          3.3527     3.3210     1.3116 C.ar         1    LIG   0.0000
  25 C25          4.2384     3.3280     0.2395 C.ar         1    LIG   0.0000
  26 C26          4.5433     4.5362    -0.3789 C.ar         1    LIG   0.0000
  27 C27          3.9747     5.7266     0.0618 C.ar         1    LIG   0.0000
  28 C28          3.0906     5.6958     1.1353 C.ar         1    LIG   0.0000
  29 F29          2.5405     6.8274     1.5661 F            1    LIG   0.0000
  30 C30          2.7715     4.4993     1.7686 C.ar         1    LIG   0.0000
  31 C31          4.2354     1.3313     2.5844 C.3          1    LIG   0.0000
  32 C32          2.4886    -2.7182     4.1401 C.2          1    LIG   0.0000
  33 O33          1.8337    -1.8508     4.7001 O.2          1    LIG   0.0000
  34 C34          2.0542    -4.0694     4.0536 C.ar         1    LIG   0.0000
  35 C35          0.8443    -4.4716     4.6117 C.ar         1    LIG   0.0000
  36 H            4.6021    -5.2935     2.3838 H            1    LIG   0.0000
  37 H            2.8007     1.2251     0.0840 H            1    LIG   0.0000
  38 H            2.3381     2.1661     2.7145 H            1    LIG   0.0000
  39 H           -1.0828    -7.1357     5.0204 H            1    LIG   0.0000
  40 H           -0.8783    -5.9615     6.1366 H            1    LIG   0.0000
  41 H           -1.6381    -5.6277     4.7302 H            1    LIG   0.0000
  42 H            0.9086    -7.6905     3.8127 H            1    LIG   0.0000
  43 H            2.7758    -8.2815     2.6623 H            1    LIG   0.0000
  44 H            3.3800    -7.1447     1.6577 H            1    LIG   0.0000
  45 H            4.1402    -7.4790     3.0637 H            1    LIG   0.0000
  46 H            5.3603    -3.0718     2.5024 H            1    LIG   0.0000
  47 H            2.2986    -0.9869     1.6414 H            1    LIG   0.0000
  48 H            3.6101    -0.7310     0.7026 H            1    LIG   0.0000
  49 H            0.5000     0.1340     1.0000 H            1    LIG   0.0000
  50 H           -3.5484     4.2111     1.0000 H            1    LIG   0.0000
  51 H           -3.3999     2.8047     0.1835 H            1    LIG   0.0000
  52 H           -3.3999     2.8047     1.8165 H            1    LIG   0.0000
  53 H           -1.6082     5.1365     2.2411 H            1    LIG   0.0000
  54 H           -1.4597     3.7301     3.0576 H            1    LIG   0.0000
  55 H           -0.1832     4.3389     2.2411 H            1    LIG   0.0000
  56 H           -1.6082     5.1365    -0.2411 H            1    LIG   0.0000
  57 H           -0.1832     4.3389    -0.2411 H            1    LIG   0.0000
  58 H           -1.4597     3.7301    -1.0576 H            1    LIG   0.0000
  59 H            4.6507     2.4758    -0.0827 H            1    LIG   0.0000
  60 H            5.1795     4.5491    -1.1503 H            1    LIG   0.0000
  61 H            4.1982     6.5921    -0.3866 H            1    LIG   0.0000
  62 H            2.1349     4.4863     2.5396 H            1    LIG   0.0000
  63 H            5.0364     1.4645     2.0007 H            1    LIG   0.0000
  64 H            4.4300     1.6784     3.5018 H            1    LIG   0.0000
  65 H            0.2703    -3.8006     5.0810 H            1    LIG   0.0000
@<TRIPOS>BOND
   1        1        2 1
   2        2        3 ar
   3        3        4 ar
   4        4        5 1
   5        4        6 ar
   6        6        7 1
   7        7        8 1
   8        8        9 2
   9        9       10 1
  10       10       11 2
  11       10       12 am
  12       12       13 1
  13       13       14 1
  14       14       15 1
  15       15       16 am
  16       16       17 2
  17       16       18 1
  18       18       19 1
  19       19       20 1
  20       19       21 1
  21       19       22 1
  22       14       23 1
  23       23       24 1
  24       24       25 ar
  25       25       26 ar
  26       26       27 ar
  27       27       28 ar
  28       28       29 1
  29       28       30 ar
  30       30       24 ar
  31       23       31 1
  32       31       12 1
  33        9       32 1
  34       32       33 2
  35       32       34 1
  36       34        6 ar
  37       34       35 ar
  38       35        2 ar
  39        7       36 1
  40       14       37 1
  41       23       38 1
  42        1       39 1
  43        1       40 1
  44        1       41 1
  45        3       42 1
  46        5       43 1
  47        5       44 1
  48        5       45 1
  49        8       46 1
  50       13       47 1
  51       13       48 1
  52       15       49 1
  53       20       50 1
  54       20       51 1
  55       20       52 1
  56       21       53 1
  57       21       54 1
  58       21       55 1
  59       22       56 1
  60       22       57 1
  61       22       58 1
  62       25       59 1
  63       26       60 1
  64       27       61 1
  65       30       62 1
  66       31       63 1
  67       31       64 1
  68       35       65 1

@<TRIPOS>MOLECULE

  65   68
SMALL
USER_CHARGES
@<TRIPOS>ATOM
   1 C1          10.8628     0.0009     6.7129 C.3          1    LIG   0.0000
   2 C2           9.3517     0.1090     6.8190 C.ar         1    LIG   0.0000
   3 C3           8.7356     0.6081     7.9614 C.ar         1    LIG   0.0000
   4 C4           7.3470     0.6827     7.9984 C.ar         1    LIG   0.0000
   5 C5           6.7086     1.2342     9.2640 C.3          1    LIG   0.0000
   6 C6           6.5783     0.2660     6.9130 C.ar         1    LIG   0.0000
   7 N7           5.2066     0.3375     6.9422 N.pl3        1    LIG   0.0000
   8 C8           4.4216    -0.0639     5.8922 C.2          1    LIG   0.0000
   9 C9           5.0012    -0.5608     4.7537 C.2          1    LIG   0.0000
  10 C10          4.1884    -0.9908     3.6319 C.2          1    LIG   0.0000
  11 O11          3.8111    -2.1280     3.5654 O.2          1    LIG   0.0000
  12 N12          3.8441    -0.0795     2.6274 N.am         1    LIG   0.0000
  13 C13          3.0381    -0.3483     1.4281 C.3          1    LIG   0.0000
  14 C14          2.4686     1.0000     1.0000 C.3          1    LIG   0.0000
  15 N15          1.0000     1.0000     1.0000 N.am         1    LIG   0.0000
  16 C16          0.3150     2.1865     1.0000 C.2          1    LIG   0.0000
  17 O17          0.9150     3.2257     1.0000 O.2          1    LIG   0.0000
  18 O18         -0.9950     2.1865     1.0000 O.3          1    LIG   0.0000
  19 C19         -1.6063     3.4681     1.0000 C.3          1    LIG   0.0000
  20 C20         -3.1179     3.3085     1.0000 C.3          1    LIG   0.0000
  21 C21         -1.1777     4.2339     2.2411 C.3          1    LIG   0.0000
  22 C22         -1.1777     4.2339    -0.2411 C.3          1    LIG   0.0000
  23 C23          3.0135     2.0060     1.9946 C.3          1    LIG   0.0000
  24 C24          3.3527     3.3210     1.3116 C.ar         1    LIG   0.0000
  25 C25          2.7730     4.4999     1.7678 C.ar         1    LIG   0.0000
  26 C26          3.0890     5.6983     1.1361 C.ar         1    LIG   0.0000
  27 C27          3.9722     5.7274     0.0620 C.ar         1    LIG   0.0000
  28 C28          4.5410     4.5362    -0.3768 C.ar         1    LIG   0.0000
  29 F29          5.3868     4.5509    -1.4030 F            1    LIG   0.0000
  30 C30          4.2393     3.3266     0.2397 C.ar         1    LIG   0.0000
  31 C31          4.2354     1.3313     2.5844 C.3          1    LIG   0.0000
  32 C32          6.4154    -0.6590     4.6623 C.2          1    LIG   0.0000
  33 O33          6.9109    -1.1045     3.6373 O.2          1    LIG   0.0000
  34 C34          7.1995    -0.2338     5.7696 C.ar         1    LIG   0.0000
  35 C35          8.5891    -0.3068     5.7355 C.ar         1    LIG   0.0000
  36 H            4.7625     0.6970     7.7629 H            1    LIG   0.0000
  37 H            2.8007     1.2251     0.0840 H            1    LIG   0.0000
  38 H            2.3381     2.1661     2.7145 H            1    LIG   0.0000
  39 H           11.2809     0.3330     7.5584 H            1    LIG   0.0000
  40 H           11.1192    -0.9546     6.5671 H            1    LIG   0.0000
  41 H           11.1833     0.5532     5.9433 H            1    LIG   0.0000
  42 H            9.2817     0.9083     8.7435 H            1    LIG   0.0000
  43 H            7.4236     1.4754     9.9202 H            1    LIG   0.0000
  44 H            6.1734     2.0486     9.0397 H            1    LIG   0.0000
  45 H            6.1090     0.5410     9.6641 H            1    LIG   0.0000
  46 H            3.4262     0.0058     5.9570 H            1    LIG   0.0000
  47 H            2.2986    -0.9869     1.6414 H            1    LIG   0.0000
  48 H            3.6101    -0.7310     0.7026 H            1    LIG   0.0000
  49 H            0.5000     0.1340     1.0000 H            1    LIG   0.0000
  50 H           -3.5484     4.2111     1.0000 H            1    LIG   0.0000
  51 H           -3.3999     2.8047     0.1835 H            1    LIG   0.0000
  52 H           -3.3999     2.8047     1.8165 H            1    LIG   0.0000
  53 H           -1.6082     5.1365     2.2411 H            1    LIG   0.0000
  54 H           -1.4597     3.7301     3.0576 H            1    LIG   0.0000
  55 H           -0.1832     4.3389     2.2411 H            1    LIG   0.0000
  56 H           -1.6082     5.1365    -0.2411 H            1    LIG   0.0000
  57 H           -0.1832     4.3389    -0.2411 H            1    LIG   0.0000
  58 H           -1.4597     3.7301    -1.0576 H            1    LIG   0.0000
  59 H            2.1373     4.4862     2.5396 H            1    LIG   0.0000
  60 H            2.6758     6.5500     1.4585 H            1    LIG   0.0000
  61 H            4.1950     6.5920    -0.3882 H            1    LIG   0.0000
  62 H            4.6529     2.4749    -0.0822 H            1    LIG   0.0000
  63 H            5.0364     1.4645     2.0007 H            1    LIG   0.0000
  64 H            4.4300     1.6784     3.5018 H            1    LIG   0.0000
  65 H            9.0444    -0.6636     4.9198 H            1    LIG   0.0000
@<TRIPOS>BOND
   1        1        2 1
   2        2        3 ar
   3        3        4 ar
   4        4        5 1
   5        4        6 ar
   6        6        7 1
   7        7        8 1
   8        8        9 2
   9        9       10 1
  10       10       11 2
  11       10       12 am
  12       12       13 1
  13       13       14 1
  14       14       15 1
  15       15       16 am
  16       16       17 2
  17       16       18 1
  18       18       19 1
  19       19       20 1
  20       19       21 1
  21       19       22 1
  22       14       23 1
  23       23       24 1
  24       24       25 ar
  25       25       26 ar
  26       26       27 ar
  27       27       28 ar
  28       28       29 1
  29       28       30 ar
  30       30       24 ar
  31       23       31 1
  32       31       12 1
  33        9       32 1
  34       32       33 2
  35       32       34 1
  36       34        6 ar
  37       34       35 ar
  38       35        2 ar
  39        7       36 1
  40       14       37 1
  41       23       38 1
  42        1       39 1
  43        1       40 1
  44        1       41 1
  45        3       42 1
  46        5       43 1
  47        5       44 1
  48        5       45 1
  49        8       46 1
  50       13       47 1
  51       13       48 1
  52       15       49 1
  53       20       50 1
  54       20       51 1
  55       20       52 1
  56       21       53 1
  57       21       54 1
  58       21       55 1
  59       22       56 1
  60       22       57 1
  61       22       58 1
  62       25       59 1
  63       26       60 1
  64       27       61 1
  65       30       62 1
  66       31       63 1
  67       31       64 1
  68       35       65 1

@<TRIPOS>MOLECULE

  65   68
SMALL
USER_CHARGES
@<TRIPOS>ATOM
   1 C1           4.7057     1.8223    10.4761 C.3          1    LIG   0.0000
   2 C2           5.3956     1.2798     9.2368 C.ar         1    LIG   0.0000
   3 C3           6.7808     1.1876     9.1557 C.ar         1    LIG   0.0000
   4 C4           7.3541     0.6816     7.9937 C.ar         1    LIG   0.0000
   5 C5           8.8718     0.5953     7.9414 C.3          1    LIG   0.0000
   6 C6           6.5608     0.2720     6.9234 C.ar         1    LIG   0.0000
   7 N7           7.1201    -0.2293     5.7729 N.pl3        1    LIG   0.0000
   8 C8           6.3687    -0.6407     4.7025 C.2          1    LIG   0.0000
   9 C9           5.0012    -0.5608     4.7537 C.2          1    LIG   0.0000
  10 C10          4.1884    -0.9908     3.6319 C.2          1    LIG   0.0000
  11 O11          3.8111    -2.1280     3.5654 O.2          1    LIG   0.0000
  12 N12          3.8441    -0.0795     2.6274 N.am         1    LIG   0.0000
  13 C13          3.0381    -0.3483     1.4281 C.3          1    LIG   0.0000
  14 C14          2.4686     1.0000     1.0000 C.3          1    LIG   0.0000
  15 N15          1.0000     1.0000     1.0000 N.am         1    LIG   0.0000
  16 C16          0.3150     2.1865     1.0000 C.2          1    LIG   0.0000
  17 O17          0.9150     3.2257     1.0000 O.2          1    LIG   0.0000
  18 O18         -0.9950     2.1865     1.0000 O.3          1    LIG   0.0000
  19 C19         -1.6063     3.4681     1.0000 C.3          1    LIG   0.0000
  20 C20         -3.1179     3.3085     1.0000 C.3          1    LIG   0.0000
  21 C21         -1.1777     4.2339     2.2411 C.3          1    LIG   0.0000
  22 C22         -1.1777     4.2339    -0.2411 C.3          1    LIG   0.0000
  23 C23          3.0135     2.0060     1.9946 C.3          1    LIG   0.0000
  24 C24          3.3527     3.3210     1.3116 C.ar         1    LIG   0.0000
  25 C25          2.7730     4.4999     1.7678 C.ar         1    LIG   0.0000
  26 C26          3.0890     5.6983     1.1361 C.ar         1    LIG   0.0000
  27 C27          3.9722     5.7274     0.0620 C.ar         1    LIG   0.0000
  28 C28          4.5410     4.5362    -0.3768 C.ar         1    LIG   0.0000
  29 F29          5.3868     4.5509    -1.4030 F            1    LIG   0.0000
  30 C30          4.2393     3.3266     0.2397 C.ar         1    LIG   0.0000
  31 C31          4.2354     1.3313     2.5844 C.3          1    LIG   0.0000
  32 C32          4.3633    -0.0517     5.9165 C.2          1    LIG   0.0000
  33 O33          3.1426     0.0100     5.9406 O.2          1    LIG   0.0000
  34 C34          5.1727     0.3660     7.0083 C.ar         1    LIG   0.0000
  35 C35          4.6020     0.8723     8.1725 C.ar         1    LIG   0.0000
  36 H            8.1161    -0.2969     5.7139 H            1    LIG   0.0000
  37 H            2.8007     1.2251     0.0840 H            1    LIG   0.0000
  38 H            2.3381     2.1661     2.7145 H            1    LIG   0.0000
  39 H            5.3934     2.0752    11.1567 H            1    LIG   0.0000
  40 H            4.1665     2.6282    10.2316 H            1    LIG   0.0000
  41 H            4.1029     1.1207    10.8561 H            1    LIG   0.0000
  42 H            7.3553     1.4801     9.9201 H            1    LIG   0.0000
  43 H            9.2547     0.9349     8.8005 H            1    LIG   0.0000
  44 H            9.1471    -0.3566     7.8070 H            1    LIG   0.0000
  45 H            9.2113     1.1509     7.1824 H            1    LIG   0.0000
  46 H            6.8182    -0.9992     3.8844 H            1    LIG   0.0000
  47 H            2.2986    -0.9869     1.6414 H            1    LIG   0.0000
  48 H            3.6101    -0.7310     0.7026 H            1    LIG   0.0000
  49 H            0.5000     0.1340     1.0000 H            1    LIG   0.0000
  50 H           -3.5484     4.2111     1.0000 H            1    LIG   0.0000
  51 H           -3.3999     2.8047     0.1835 H            1    LIG   0.0000
  52 H           -3.3999     2.8047     1.8165 H            1    LIG   0.0000
  53 H           -1.6082     5.1365     2.2411 H            1    LIG   0.0000
  54 H           -1.4597     3.7301     3.0576 H            1    LIG   0.0000
  55 H           -0.1832     4.3389     2.2411 H            1    LIG   0.0000
  56 H           -1.6082     5.1365    -0.2411 H            1    LIG   0.0000
  57 H           -0.1832     4.3389    -0.2411 H            1    LIG   0.0000
  58 H           -1.4597     3.7301    -1.0576 H            1    LIG   0.0000
  59 H            2.1373     4.4862     2.5396 H            1    LIG   0.0000
  60 H            2.6758     6.5500     1.4585 H            1    LIG   0.0000
  61 H            4.1950     6.5920    -0.3882 H            1    LIG   0.0000
  62 H            4.6529     2.4749    -0.0822 H            1    LIG   0.0000
  63 H            5.0364     1.4645     2.0007 H            1    LIG   0.0000
  64 H            4.4300     1.6784     3.5018 H            1    LIG   0.0000
  65 H            3.6071     0.9436     8.2435 H            1    LIG   0.0000
@<TRIPOS>BOND
   1        1        2 1
   2        2        3 ar
   3        3        4 ar
   4        4        5 1
   5        4        6 ar
   6        6        7 1
   7        7        8 1
   8        8        9 2
   9        9       10 1
  10       10       11 2
  11       10       12 am
  12       12       13 1
  13       13       14 1
  14       14       15 1
  15       15       16 am
  16       16       17 2
  17       16       18 1
  18       18       19 1
  19       19       20 1
  20       19       21 1
  21       19       22 1
  22       14       23 1
  23       23       24 1
  24       24       25 ar
  25       25       26 ar
  26       26       27 ar
  27       27       28 ar
  28       28       29 1
  29       28       30 ar
  30       30       24 ar
  31       23       31 1
  32       31       12 1
  33        9       32 1
  34       32       33 2
  35       32       34 1
  36       34        6 ar
  37       34       35 ar
  38       35        2 ar
  39        7       36 1
  40       14       37 1
  41       23       38 1
  42        1       39 1
  43        1       40 1
  44        1       41 1
  45        3       42 1
  46        5       43 1
  47        5       44 1
  48        5       45 1
  49        8       46 1
  50       13       47 1
  51       13       48 1
  52       15       49 1
  53       20       50 1
  54       20       51 1
  55       20       52 1
  56       21       53 1
  57       21       54 1
  58       21       55 1
  59       22       56 1
  60       22       57 1
  61       22       58 1
  62       25       59 1
  63       26       60 1
  64       27       61 1
  65       30       62 1
  66       31       63 1
  67       31       64 1
  68       35       65 1

