@<TRIPOS>MOLECULE
*****
 65 68 0 0 0
SMALL
USER_CHARGES

@<TRIPOS>ATOM
      1 C1         12.0151    2.3441    1.7223 C.3     1  LIG1        0.0000
      2 C2         11.1000    1.1554    1.4858 C.3     1  LIG1        0.0000
      3 C3         11.5008   -0.1428    1.7822 C.3     1  LIG1        0.0000
      4 C4         10.6172   -1.1903    1.5436 C.3     1  LIG1        0.0000
      5 C5         11.0901   -2.5961    1.8804 C.3     1  LIG1        0.0000
      6 C6          9.3494   -0.9517    1.0160 C.3     1  LIG1        0.0000
      7 N7          8.4712   -1.9813    0.7784 N.pl3   1  LIG1        0.0000
      8 C8          7.2177   -1.7808    0.2604 C.2     1  LIG1        0.0000
      9 C9          6.7958   -0.5122   -0.0421 C.2     1  LIG1        0.0000
     10 C10         5.4735   -0.2790   -0.5909 C.2     1  LIG1        0.0000
     11 O11         5.3075   -0.2849   -1.7793 O.2     1  LIG1        0.0000
     12 N12         4.3912   -0.0471    0.2658 N.am    1  LIG1        0.0000
     13 C13         3.0140    0.1993   -0.1582 C.3     1  LIG1        0.0000
     14 C14         2.4701    1.0000    1.0000 C.3     1  LIG1        0.0000
     15 N15         1.0000    1.0000    1.0000 N.am    1  LIG1        0.0000
     16 C16         0.3150    2.1865    1.0000 C.2     1  LIG1        0.0000
     17 O17         0.9150    3.2257    1.0000 O.2     1  LIG1        0.0000
     18 O18        -0.9950    2.1865    1.0000 O.3     1  LIG1        0.0000
     19 C19        -1.6063    3.4681    1.0000 C.3     1  LIG1        0.0000
     20 C20        -3.1179    3.3085    1.0000 C.3     1  LIG1        0.0000
     21 C21        -1.1777    4.2339    2.2411 C.3     1  LIG1        0.0000
     22 C22        -1.1777    4.2339   -0.2411 C.3     1  LIG1        0.0000
     23 C23         3.0158    0.1973    2.1604 C.3     1  LIG1        0.0000
     24 C24         2.9314    0.9713    3.4659 C.3     1  LIG1        0.0000
     25 C25         2.2525    0.4198    4.5471 C.3     1  LIG1        0.0000
     26 C26         2.1801    1.1357    5.7376 C.3     1  LIG1        0.0000
     27 C27         2.7759    2.3871    5.8549 C.3     1  LIG1        0.0000
     28 C28         3.4506    2.9189    4.7609 C.3     1  LIG1        0.0000
     29 F29         4.0242    4.1146    4.8605 F       1  LIG1        0.0000
     30 C30         3.5354    2.2208    3.5610 C.3     1  LIG1        0.0000
     31 C31         4.4516   -0.0127    1.7251 C.3     1  LIG1        0.0000
     32 C32         7.6579    0.5945    0.1817 C.2     1  LIG1        0.0000
     33 O33         7.2607    1.7172   -0.0948 O.2     1  LIG1        0.0000
     34 C34         8.9512    0.3510    0.7200 C.3     1  LIG1        0.0000
     35 C35         9.8374    1.3970    0.9603 C.3     1  LIG1        0.0000
     36 H           8.7581   -2.9151    0.9920 H       1  LIG1        0.0000
     37 H           2.8334    1.9317    1.0000 H       1  LIG1        0.0000
     38 H           2.5393   -0.6784    2.2383 H       1  LIG1        0.0000
     39 H          12.8844    2.0255    2.1003 H       1  LIG1        0.0000
     40 H          12.1809    2.8147    0.8557 H       1  LIG1        0.0000
     41 H          11.5826    2.9747    2.3667 H       1  LIG1        0.0000
     42 H          12.4092   -0.3203    2.1606 H       1  LIG1        0.0000
     43 H          12.0205   -2.5565    2.2448 H       1  LIG1        0.0000
     44 H          10.4810   -2.9978    2.5643 H       1  LIG1        0.0000
     45 H          11.0796   -3.1584    1.0535 H       1  LIG1        0.0000
     46 H           6.6112   -2.5602    0.1034 H       1  LIG1        0.0000
     47 H           2.5110   -0.6569   -0.2764 H       1  LIG1        0.0000
     48 H           2.9837    0.7239   -1.0090 H       1  LIG1        0.0000
     49 H           0.5000    0.1340    1.0000 H       1  LIG1        0.0000
     50 H          -3.5484    4.2111    1.0000 H       1  LIG1        0.0000
     51 H          -3.3999    2.8047    0.1835 H       1  LIG1        0.0000
     52 H          -3.3999    2.8047    1.8165 H       1  LIG1        0.0000
     53 H          -1.6082    5.1365    2.2411 H       1  LIG1        0.0000
     54 H          -1.4597    3.7301    3.0576 H       1  LIG1        0.0000
     55 H          -0.1832    4.3389    2.2411 H       1  LIG1        0.0000
     56 H          -1.6082    5.1365   -0.2411 H       1  LIG1        0.0000
     57 H          -0.1832    4.3389   -0.2411 H       1  LIG1        0.0000
     58 H          -1.4597    3.7301   -1.0576 H       1  LIG1        0.0000
     59 H           1.8221   -0.4795    4.4698 H       1  LIG1        0.0000
     60 H           1.6935    0.7456    6.5193 H       1  LIG1        0.0000
     61 H           2.7199    2.8971    6.7133 H       1  LIG1        0.0000
     62 H           4.0226    2.6106    2.7795 H       1  LIG1        0.0000
     63 H           5.0293    0.7415    2.0371 H       1  LIG1        0.0000
     64 H           4.8071   -0.8756    2.0845 H       1  LIG1        0.0000
     65 H           9.5612    2.3352    0.7517 H       1  LIG1        0.0000
@<TRIPOS>BOND
     1     1     2    1
     2     2     3   ar
     3     3     4   ar
     4     4     5    1
     5     4     6   ar
     6     6     7    1
     7     7     8    1
     8     8     9    2
     9     9    10    1
    10    10    11    2
    11    10    12   am
    12    12    13    1
    13    13    14    1
    14    14    15    1
    15    15    16   am
    16    16    17    2
    17    16    18    1
    18    18    19    1
    19    19    20    1
    20    19    21    1
    21    19    22    1
    22    14    23    1
    23    23    24    1
    24    24    25   ar
    25    25    26   ar
    26    26    27   ar
    27    27    28   ar
    28    28    29    1
    29    28    30   ar
    30    30    24   ar
    31    23    31    1
    32    31    12    1
    33     9    32    1
    34    32    33    2
    35    32    34    1
    36    34     6   ar
    37    34    35   ar
    38    35     2   ar
    39     7    36    1
    40    14    37    1
    41    23    38    1
    42     1    39    1
    43     1    40    1
    44     1    41    1
    45     3    42    1
    46     5    43    1
    47     5    44    1
    48     5    45    1
    49     8    46    1
    50    13    47    1
    51    13    48    1
    52    15    49    1
    53    20    50    1
    54    20    51    1
    55    20    52    1
    56    21    53    1
    57    21    54    1
    58    21    55    1
    59    22    56    1
    60    22    57    1
    61    22    58    1
    62    25    59    1
    63    26    60    1
    64    27    61    1
    65    30    62    1
    66    31    63    1
    67    31    64    1
    68    35    65    1
