@<TRIPOS>MOLECULE
*****
 65 68 0 0 0
SMALL
USER_CHARGES

@<TRIPOS>ATOM
      1 C1          3.8933    7.8500   -5.2494 C.3     1  LIG1        0.0000
      2 C2          4.2424    7.4033   -3.8405 C.3     1  LIG1        0.0000
      3 C3          4.3730    8.3150   -2.7986 C.3     1  LIG1        0.0000
      4 C4          4.6941    7.8445   -1.5296 C.3     1  LIG1        0.0000
      5 C5          4.8281    8.8707   -0.4151 C.3     1  LIG1        0.0000
      6 C6          4.8841    6.4834   -1.2975 C.3     1  LIG1        0.0000
      7 N7          5.2008    6.0114   -0.0466 N.pl3   1  LIG1        0.0000
      8 C8          5.3941    4.6795    0.2153 C.2     1  LIG1        0.0000
      9 C9          5.2728    3.7581   -0.7923 C.2     1  LIG1        0.0000
     10 C10         5.4735    2.3446   -0.5358 C.2     1  LIG1        0.0000
     11 O11         6.5674    1.8640   -0.6469 O.2     1  LIG1        0.0000
     12 N12         4.3912    1.5412   -0.1587 N.am    1  LIG1        0.0000
     13 C13         3.0140    2.0016    0.0104 C.3     1  LIG1        0.0000
     14 C14         2.4701    1.0000    1.0000 C.3     1  LIG1        0.0000
     15 N15         1.0000    1.0000    1.0000 N.am    1  LIG1        0.0000
     16 C16         0.3150    2.1865    1.0000 C.2     1  LIG1        0.0000
     17 O17         0.9150    3.2257    1.0000 O.2     1  LIG1        0.0000
     18 O18        -0.9950    2.1865    1.0000 O.3     1  LIG1        0.0000
     19 C19        -1.6063    3.4681    1.0000 C.3     1  LIG1        0.0000
     20 C20        -3.1179    3.3085    1.0000 C.3     1  LIG1        0.0000
     21 C21        -1.1777    4.2339    2.2411 C.3     1  LIG1        0.0000
     22 C22        -1.1777    4.2339   -0.2411 C.3     1  LIG1        0.0000
     23 C23         3.0158   -0.2821    0.4110 C.3     1  LIG1        0.0000
     24 C24         2.9314   -1.4335    1.4000 C.3     1  LIG1        0.0000
     25 C25         3.5342   -1.3113    2.6472 C.3     1  LIG1        0.0000
     26 C26         3.4523   -2.3703    3.5454 C.3     1  LIG1        0.0000
     27 C27         2.7783   -3.5399    3.2098 C.3     1  LIG1        0.0000
     28 C28         2.1820   -3.6397    1.9571 C.3     1  LIG1        0.0000
     29 F29         1.5349   -4.7529    1.6243 F       1  LIG1        0.0000
     30 C30         2.2515   -2.5934    1.0433 C.3     1  LIG1        0.0000
     31 C31         4.4516    0.1100    0.1286 C.3     1  LIG1        0.0000
     32 C32         4.9464    4.1839   -2.1076 C.2     1  LIG1        0.0000
     33 O33         4.8426    3.3448   -2.9907 O.2     1  LIG1        0.0000
     34 C34         4.7525    5.5725   -2.3444 C.3     1  LIG1        0.0000
     35 C35         4.4307    6.0464   -3.6129 C.3     1  LIG1        0.0000
     36 H           5.2940    6.6660    0.7035 H       1  LIG1        0.0000
     37 H           2.8334    1.1618    1.9175 H       1  LIG1        0.0000
     38 H           2.5393   -0.5109   -0.4379 H       1  LIG1        0.0000
     39 H           3.7874    8.8442   -5.2673 H       1  LIG1        0.0000
     40 H           4.6255    7.5814   -5.8753 H       1  LIG1        0.0000
     41 H           3.0371    7.4184   -5.5333 H       1  LIG1        0.0000
     42 H           4.2382    9.2928   -2.9590 H       1  LIG1        0.0000
     43 H           4.6553    9.7851   -0.7813 H       1  LIG1        0.0000
     44 H           4.1643    8.6692    0.3052 H       1  LIG1        0.0000
     45 H           5.7528    8.8327   -0.0363 H       1  LIG1        0.0000
     46 H           5.6236    4.3803    1.1414 H       1  LIG1        0.0000
     47 H           2.5110    1.9693   -0.8534 H       1  LIG1        0.0000
     48 H           2.9837    2.9306    0.3792 H       1  LIG1        0.0000
     49 H           0.5000    0.1340    1.0000 H       1  LIG1        0.0000
     50 H          -3.5484    4.2111    1.0000 H       1  LIG1        0.0000
     51 H          -3.3999    2.8047    0.1835 H       1  LIG1        0.0000
     52 H          -3.3999    2.8047    1.8165 H       1  LIG1        0.0000
     53 H          -1.6082    5.1365    2.2411 H       1  LIG1        0.0000
     54 H          -1.4597    3.7301    3.0576 H       1  LIG1        0.0000
     55 H          -0.1832    4.3389    2.2411 H       1  LIG1        0.0000
     56 H          -1.6082    5.1365   -0.2411 H       1  LIG1        0.0000
     57 H          -0.1832    4.3389   -0.2411 H       1  LIG1        0.0000
     58 H          -1.4597    3.7301   -1.0576 H       1  LIG1        0.0000
     59 H           4.0202   -0.4732    2.8951 H       1  LIG1        0.0000
     60 H           3.8835   -2.2898    4.4441 H       1  LIG1        0.0000
     61 H           2.7233   -4.2979    3.8597 H       1  LIG1        0.0000
     62 H           1.8198   -2.6737    0.1449 H       1  LIG1        0.0000
     63 H           5.0293   -0.0662    0.9255 H       1  LIG1        0.0000
     64 H           4.8071   -0.3937   -0.6588 H       1  LIG1        0.0000
     65 H           4.3337    5.4010   -4.3706 H       1  LIG1        0.0000
@<TRIPOS>BOND
     1     1     2    1
     2     2     3   ar
     3     3     4   ar
     4     4     5    1
     5     4     6   ar
     6     6     7    1
     7     7     8    1
     8     8     9    2
     9     9    10    1
    10    10    11    2
    11    10    12   am
    12    12    13    1
    13    13    14    1
    14    14    15    1
    15    15    16   am
    16    16    17    2
    17    16    18    1
    18    18    19    1
    19    19    20    1
    20    19    21    1
    21    19    22    1
    22    14    23    1
    23    23    24    1
    24    24    25   ar
    25    25    26   ar
    26    26    27   ar
    27    27    28   ar
    28    28    29    1
    29    28    30   ar
    30    30    24   ar
    31    23    31    1
    32    31    12    1
    33     9    32    1
    34    32    33    2
    35    32    34    1
    36    34     6   ar
    37    34    35   ar
    38    35     2   ar
    39     7    36    1
    40    14    37    1
    41    23    38    1
    42     1    39    1
    43     1    40    1
    44     1    41    1
    45     3    42    1
    46     5    43    1
    47     5    44    1
    48     5    45    1
    49     8    46    1
    50    13    47    1
    51    13    48    1
    52    15    49    1
    53    20    50    1
    54    20    51    1
    55    20    52    1
    56    21    53    1
    57    21    54    1
    58    21    55    1
    59    22    56    1
    60    22    57    1
    61    22    58    1
    62    25    59    1
    63    26    60    1
    64    27    61    1
    65    30    62    1
    66    31    63    1
    67    31    64    1
    68    35    65    1
