@<TRIPOS>MOLECULE
*****
 65 68 0 0 0
SMALL
USER_CHARGES

@<TRIPOS>ATOM
      1 C1          8.7514    0.0506   -5.6289 C.3     1  LIG1        0.0000
      2 C2          7.3634   -0.4719   -5.3021 C.3     1  LIG1        0.0000
      3 C3          6.4258   -0.7214   -6.2984 C.3     1  LIG1        0.0000
      4 C4          5.1709   -1.1998   -5.9360 C.3     1  LIG1        0.0000
      5 C5          4.1717   -1.4616   -7.0526 C.3     1  LIG1        0.0000
      6 C6          4.8500   -1.4277   -4.5990 C.3     1  LIG1        0.0000
      7 N7          3.6128   -1.9008   -4.2338 N.pl3   1  LIG1        0.0000
      8 C8          3.2654   -2.1354   -2.9285 C.2     1  LIG1        0.0000
      9 C9          4.1688   -1.8977   -1.9253 C.2     1  LIG1        0.0000
     10 C10         3.8208   -2.1394   -0.5381 C.2     1  LIG1        0.0000
     11 O11         4.0249   -3.2151   -0.0469 O.2     1  LIG1        0.0000
     12 N12         3.2453   -1.1154    0.2296 N.am    1  LIG1        0.0000
     13 C13         2.9474    0.2495   -0.2236 C.3     1  LIG1        0.0000
     14 C14         2.4712    1.0000    1.0000 C.3     1  LIG1        0.0000
     15 N15         1.0000    1.0000    1.0000 N.am    1  LIG1        0.0000
     16 C16         0.3150    2.1865    1.0000 C.2     1  LIG1        0.0000
     17 O17         0.9150    3.2257    1.0000 O.2     1  LIG1        0.0000
     18 O18        -0.9950    2.1865    1.0000 O.3     1  LIG1        0.0000
     19 C19        -1.6063    3.4681    1.0000 C.3     1  LIG1        0.0000
     20 C20        -3.1179    3.3085    1.0000 C.3     1  LIG1        0.0000
     21 C21        -1.1777    4.2339    2.2411 C.3     1  LIG1        0.0000
     22 C22        -1.1777    4.2339   -0.2411 C.3     1  LIG1        0.0000
     23 C23         3.0252    0.1982    2.1590 C.3     1  LIG1        0.0000
     24 C24         4.4908    0.5057    2.4201 C.3     1  LIG1        0.0000
     25 C25         4.8863    0.9387    3.6811 C.3     1  LIG1        0.0000
     26 C26         6.2295    1.2181    3.9105 C.3     1  LIG1        0.0000
     27 C27         7.1721    1.0693    2.8986 C.3     1  LIG1        0.0000
     28 C28         6.7542    0.6340    1.6453 C.3     1  LIG1        0.0000
     29 F29         7.6458    0.4879    0.6694 F       1  LIG1        0.0000
     30 C30         5.4163    0.3489    1.3935 C.3     1  LIG1        0.0000
     31 C31         2.8423   -1.2088    1.6358 C.3     1  LIG1        0.0000
     32 C32         5.4651   -1.4086   -2.2391 C.2     1  LIG1        0.0000
     33 O33         6.2550   -1.2044   -1.3286 O.2     1  LIG1        0.0000
     34 C34         5.7924   -1.1763   -3.6032 C.3     1  LIG1        0.0000
     35 C35         7.0473   -0.6980   -3.9689 C.3     1  LIG1        0.0000
     36 H           2.9381   -2.0814   -4.9495 H       1  LIG1        0.0000
     37 H           2.8287    1.9339    1.0081 H       1  LIG1        0.0000
     38 H           2.4795    0.3438    2.9843 H       1  LIG1        0.0000
     39 H           8.8396    0.1663   -6.6183 H       1  LIG1        0.0000
     40 H           8.8910    0.9314   -5.1765 H       1  LIG1        0.0000
     41 H           9.4374   -0.6019   -5.3071 H       1  LIG1        0.0000
     42 H           6.6500   -0.5596   -7.2594 H       1  LIG1        0.0000
     43 H           4.5897   -1.2378   -7.9331 H       1  LIG1        0.0000
     44 H           3.9078   -2.4261   -7.0444 H       1  LIG1        0.0000
     45 H           3.3609   -0.8929   -6.9144 H       1  LIG1        0.0000
     46 H           2.3529   -2.4800   -2.7082 H       1  LIG1        0.0000
     47 H           2.2324    0.2353   -0.9226 H       1  LIG1        0.0000
     48 H           3.7698    0.6791   -0.5966 H       1  LIG1        0.0000
     49 H           0.5000    0.1340    1.0000 H       1  LIG1        0.0000
     50 H          -3.5484    4.2111    1.0000 H       1  LIG1        0.0000
     51 H          -3.3999    2.8047    0.1835 H       1  LIG1        0.0000
     52 H          -3.3999    2.8047    1.8165 H       1  LIG1        0.0000
     53 H          -1.6082    5.1365    2.2411 H       1  LIG1        0.0000
     54 H          -1.4597    3.7301    3.0576 H       1  LIG1        0.0000
     55 H          -0.1832    4.3389    2.2411 H       1  LIG1        0.0000
     56 H          -1.6082    5.1365   -0.2411 H       1  LIG1        0.0000
     57 H          -0.1832    4.3389   -0.2411 H       1  LIG1        0.0000
     58 H          -1.4597    3.7301   -1.0576 H       1  LIG1        0.0000
     59 H           4.2139    1.0477    4.4133 H       1  LIG1        0.0000
     60 H           6.5213    1.5301    4.8147 H       1  LIG1        0.0000
     61 H           8.1362    1.2723    3.0695 H       1  LIG1        0.0000
     62 H           5.1246    0.0363    0.4895 H       1  LIG1        0.0000
     63 H           3.4261   -1.8517    2.1315 H       1  LIG1        0.0000
     64 H           1.8878   -1.4965    1.7142 H       1  LIG1        0.0000
     65 H           7.7306   -0.5148   -3.2621 H       1  LIG1        0.0000
@<TRIPOS>BOND
     1     1     2    1
     2     2     3   ar
     3     3     4   ar
     4     4     5    1
     5     4     6   ar
     6     6     7    1
     7     7     8    1
     8     8     9    2
     9     9    10    1
    10    10    11    2
    11    10    12   am
    12    12    13    1
    13    13    14    1
    14    14    15    1
    15    15    16   am
    16    16    17    2
    17    16    18    1
    18    18    19    1
    19    19    20    1
    20    19    21    1
    21    19    22    1
    22    14    23    1
    23    23    24    1
    24    24    25   ar
    25    25    26   ar
    26    26    27   ar
    27    27    28   ar
    28    28    29    1
    29    28    30   ar
    30    30    24   ar
    31    23    31    1
    32    31    12    1
    33     9    32    1
    34    32    33    2
    35    32    34    1
    36    34     6   ar
    37    34    35   ar
    38    35     2   ar
    39     7    36    1
    40    14    37    1
    41    23    38    1
    42     1    39    1
    43     1    40    1
    44     1    41    1
    45     3    42    1
    46     5    43    1
    47     5    44    1
    48     5    45    1
    49     8    46    1
    50    13    47    1
    51    13    48    1
    52    15    49    1
    53    20    50    1
    54    20    51    1
    55    20    52    1
    56    21    53    1
    57    21    54    1
    58    21    55    1
    59    22    56    1
    60    22    57    1
    61    22    58    1
    62    25    59    1
    63    26    60    1
    64    27    61    1
    65    30    62    1
    66    31    63    1
    67    31    64    1
    68    35    65    1
