@<TRIPOS>MOLECULE
*****
 65 68 0 0 0
SMALL
USER_CHARGES

@<TRIPOS>ATOM
      1 C1          3.8933   -3.9650   -6.8311 C.3     1  LIG1        0.0000
      2 C2          4.2424   -2.6551   -6.1466 C.3     1  LIG1        0.0000
      3 C3          4.3730   -1.4707   -6.8635 C.3     1  LIG1        0.0000
      4 C4          4.6941   -0.3027   -6.1797 C.3     1  LIG1        0.0000
      5 C5          4.8281    0.9732   -6.9969 C.3     1  LIG1        0.0000
      6 C6          4.8841   -0.3104   -4.7990 C.3     1  LIG1        0.0000
      7 N7          5.2008    0.8395   -4.1170 N.pl3   1  LIG1        0.0000
      8 C8          5.3941    0.8661   -2.7599 C.2     1  LIG1        0.0000
      9 C9          5.2728   -0.2861   -2.0274 C.2     1  LIG1        0.0000
     10 C10         5.4735   -0.2790   -0.5909 C.2     1  LIG1        0.0000
     11 O11         6.5674   -0.4719   -0.1369 O.2     1  LIG1        0.0000
     12 N12         4.3912   -0.0471    0.2658 N.am    1  LIG1        0.0000
     13 C13         3.0140    0.1993   -0.1582 C.3     1  LIG1        0.0000
     14 C14         2.4701    1.0000    1.0000 C.3     1  LIG1        0.0000
     15 N15         1.0000    1.0000    1.0000 N.am    1  LIG1        0.0000
     16 C16         0.3150    2.1865    1.0000 C.2     1  LIG1        0.0000
     17 O17         0.9150    3.2257    1.0000 O.2     1  LIG1        0.0000
     18 O18        -0.9950    2.1865    1.0000 O.3     1  LIG1        0.0000
     19 C19        -1.6063    3.4681    1.0000 C.3     1  LIG1        0.0000
     20 C20        -3.1179    3.3085    1.0000 C.3     1  LIG1        0.0000
     21 C21        -1.1777    4.2339    2.2411 C.3     1  LIG1        0.0000
     22 C22        -1.1777    4.2339   -0.2411 C.3     1  LIG1        0.0000
     23 C23         3.0158    0.1973    2.1604 C.3     1  LIG1        0.0000
     24 C24         2.9314    0.9713    3.4659 C.3     1  LIG1        0.0000
     25 C25         2.2525    0.4198    4.5471 C.3     1  LIG1        0.0000
     26 C26         2.1801    1.1357    5.7376 C.3     1  LIG1        0.0000
     27 C27         2.7759    2.3871    5.8549 C.3     1  LIG1        0.0000
     28 C28         3.4506    2.9189    4.7609 C.3     1  LIG1        0.0000
     29 F29         4.0242    4.1146    4.8605 F       1  LIG1        0.0000
     30 C30         3.5354    2.2208    3.5610 C.3     1  LIG1        0.0000
     31 C31         4.4516   -0.0127    1.7251 C.3     1  LIG1        0.0000
     32 C32         4.9464   -1.5075   -2.6752 C.2     1  LIG1        0.0000
     33 O33         4.8426   -2.5229   -2.0022 O.2     1  LIG1        0.0000
     34 C34         4.7525   -1.4996   -4.0838 C.3     1  LIG1        0.0000
     35 C35         4.4307   -2.6665   -4.7707 C.3     1  LIG1        0.0000
     36 H           5.2940    1.6919   -4.6314 H       1  LIG1        0.0000
     37 H           2.8334    1.9317    1.0000 H       1  LIG1        0.0000
     38 H           2.5393   -0.6784    2.2383 H       1  LIG1        0.0000
     39 H           3.7874   -3.8099   -7.8133 H       1  LIG1        0.0000
     40 H           4.6255   -4.6280   -6.6753 H       1  LIG1        0.0000
     41 H           3.0371   -4.3195   -6.4554 H       1  LIG1        0.0000
     42 H           4.2382   -1.4589   -7.8543 H       1  LIG1        0.0000
     43 H           4.6553    0.7713   -7.9609 H       1  LIG1        0.0000
     44 H           4.1643    1.6475   -6.6734 H       1  LIG1        0.0000
     45 H           5.7528    1.3396   -6.8936 H       1  LIG1        0.0000
     46 H           5.6236    1.7263   -2.3044 H       1  LIG1        0.0000
     47 H           2.5110   -0.6569   -0.2764 H       1  LIG1        0.0000
     48 H           2.9837    0.7239   -1.0090 H       1  LIG1        0.0000
     49 H           0.5000    0.1340    1.0000 H       1  LIG1        0.0000
     50 H          -3.5484    4.2111    1.0000 H       1  LIG1        0.0000
     51 H          -3.3999    2.8047    0.1835 H       1  LIG1        0.0000
     52 H          -3.3999    2.8047    1.8165 H       1  LIG1        0.0000
     53 H          -1.6082    5.1365    2.2411 H       1  LIG1        0.0000
     54 H          -1.4597    3.7301    3.0576 H       1  LIG1        0.0000
     55 H          -0.1832    4.3389    2.2411 H       1  LIG1        0.0000
     56 H          -1.6082    5.1365   -0.2411 H       1  LIG1        0.0000
     57 H          -0.1832    4.3389   -0.2411 H       1  LIG1        0.0000
     58 H          -1.4597    3.7301   -1.0576 H       1  LIG1        0.0000
     59 H           1.8221   -0.4795    4.4698 H       1  LIG1        0.0000
     60 H           1.6935    0.7456    6.5193 H       1  LIG1        0.0000
     61 H           2.7199    2.8971    6.7133 H       1  LIG1        0.0000
     62 H           4.0226    2.6106    2.7795 H       1  LIG1        0.0000
     63 H           5.0293    0.7415    2.0371 H       1  LIG1        0.0000
     64 H           4.8071   -0.8756    2.0845 H       1  LIG1        0.0000
     65 H           4.3337   -3.5248   -4.2667 H       1  LIG1        0.0000
@<TRIPOS>BOND
     1     1     2    1
     2     2     3   ar
     3     3     4   ar
     4     4     5    1
     5     4     6   ar
     6     6     7    1
     7     7     8    1
     8     8     9    2
     9     9    10    1
    10    10    11    2
    11    10    12   am
    12    12    13    1
    13    13    14    1
    14    14    15    1
    15    15    16   am
    16    16    17    2
    17    16    18    1
    18    18    19    1
    19    19    20    1
    20    19    21    1
    21    19    22    1
    22    14    23    1
    23    23    24    1
    24    24    25   ar
    25    25    26   ar
    26    26    27   ar
    27    27    28   ar
    28    28    29    1
    29    28    30   ar
    30    30    24   ar
    31    23    31    1
    32    31    12    1
    33     9    32    1
    34    32    33    2
    35    32    34    1
    36    34     6   ar
    37    34    35   ar
    38    35     2   ar
    39     7    36    1
    40    14    37    1
    41    23    38    1
    42     1    39    1
    43     1    40    1
    44     1    41    1
    45     3    42    1
    46     5    43    1
    47     5    44    1
    48     5    45    1
    49     8    46    1
    50    13    47    1
    51    13    48    1
    52    15    49    1
    53    20    50    1
    54    20    51    1
    55    20    52    1
    56    21    53    1
    57    21    54    1
    58    21    55    1
    59    22    56    1
    60    22    57    1
    61    22    58    1
    62    25    59    1
    63    26    60    1
    64    27    61    1
    65    30    62    1
    66    31    63    1
    67    31    64    1
    68    35    65    1
