@<TRIPOS>MOLECULE
*****
 65 68 0 0 0
SMALL
USER_CHARGES

@<TRIPOS>ATOM
      1 C1         10.8628    0.0009    6.7129 C.3     1  LIG1        0.0000
      2 C2          9.3517    0.1090    6.8190 C.3     1  LIG1        0.0000
      3 C3          8.7356    0.6081    7.9614 C.3     1  LIG1        0.0000
      4 C4          7.3470    0.6827    7.9984 C.3     1  LIG1        0.0000
      5 C5          6.7086    1.2342    9.2640 C.3     1  LIG1        0.0000
      6 C6          6.5783    0.2660    6.9130 C.3     1  LIG1        0.0000
      7 N7          5.2066    0.3375    6.9422 N.pl3   1  LIG1        0.0000
      8 C8          4.4216   -0.0639    5.8922 C.2     1  LIG1        0.0000
      9 C9          5.0012   -0.5608    4.7537 C.2     1  LIG1        0.0000
     10 C10         4.1884   -0.9908    3.6319 C.2     1  LIG1        0.0000
     11 O11         3.8111   -2.1280    3.5654 O.2     1  LIG1        0.0000
     12 N12         3.8441   -0.0795    2.6274 N.am    1  LIG1        0.0000
     13 C13         3.0381   -0.3483    1.4281 C.3     1  LIG1        0.0000
     14 C14         2.4686    1.0000    1.0000 C.3     1  LIG1        0.0000
     15 N15         1.0000    1.0000    1.0000 N.am    1  LIG1        0.0000
     16 C16         0.3150    2.1865    1.0000 C.2     1  LIG1        0.0000
     17 O17         0.9150    3.2257    1.0000 O.2     1  LIG1        0.0000
     18 O18        -0.9950    2.1865    1.0000 O.3     1  LIG1        0.0000
     19 C19        -1.6063    3.4681    1.0000 C.3     1  LIG1        0.0000
     20 C20        -3.1179    3.3085    1.0000 C.3     1  LIG1        0.0000
     21 C21        -1.1777    4.2339    2.2411 C.3     1  LIG1        0.0000
     22 C22        -1.1777    4.2339   -0.2411 C.3     1  LIG1        0.0000
     23 C23         3.0135    2.0060    1.9946 C.3     1  LIG1        0.0000
     24 C24         3.3527    3.3210    1.3116 C.3     1  LIG1        0.0000
     25 C25         2.7730    4.4999    1.7678 C.3     1  LIG1        0.0000
     26 C26         3.0890    5.6983    1.1361 C.3     1  LIG1        0.0000
     27 C27         3.9722    5.7274    0.0620 C.3     1  LIG1        0.0000
     28 C28         4.5410    4.5362   -0.3768 C.3     1  LIG1        0.0000
     29 F29         5.3868    4.5509   -1.4030 F       1  LIG1        0.0000
     30 C30         4.2393    3.3266    0.2397 C.3     1  LIG1        0.0000
     31 C31         4.2354    1.3313    2.5844 C.3     1  LIG1        0.0000
     32 C32         6.4154   -0.6590    4.6623 C.2     1  LIG1        0.0000
     33 O33         6.9109   -1.1045    3.6373 O.2     1  LIG1        0.0000
     34 C34         7.1995   -0.2338    5.7696 C.3     1  LIG1        0.0000
     35 C35         8.5891   -0.3068    5.7355 C.3     1  LIG1        0.0000
     36 H           4.7625    0.6970    7.7629 H       1  LIG1        0.0000
     37 H           2.8007    1.2251    0.0840 H       1  LIG1        0.0000
     38 H           2.3381    2.1661    2.7145 H       1  LIG1        0.0000
     39 H          11.2809    0.3330    7.5584 H       1  LIG1        0.0000
     40 H          11.1192   -0.9546    6.5671 H       1  LIG1        0.0000
     41 H          11.1833    0.5532    5.9433 H       1  LIG1        0.0000
     42 H           9.2817    0.9083    8.7435 H       1  LIG1        0.0000
     43 H           7.4236    1.4754    9.9202 H       1  LIG1        0.0000
     44 H           6.1734    2.0486    9.0397 H       1  LIG1        0.0000
     45 H           6.1090    0.5410    9.6641 H       1  LIG1        0.0000
     46 H           3.4262    0.0058    5.9570 H       1  LIG1        0.0000
     47 H           2.2986   -0.9869    1.6414 H       1  LIG1        0.0000
     48 H           3.6101   -0.7310    0.7026 H       1  LIG1        0.0000
     49 H           0.5000    0.1340    1.0000 H       1  LIG1        0.0000
     50 H          -3.5484    4.2111    1.0000 H       1  LIG1        0.0000
     51 H          -3.3999    2.8047    0.1835 H       1  LIG1        0.0000
     52 H          -3.3999    2.8047    1.8165 H       1  LIG1        0.0000
     53 H          -1.6082    5.1365    2.2411 H       1  LIG1        0.0000
     54 H          -1.4597    3.7301    3.0576 H       1  LIG1        0.0000
     55 H          -0.1832    4.3389    2.2411 H       1  LIG1        0.0000
     56 H          -1.6082    5.1365   -0.2411 H       1  LIG1        0.0000
     57 H          -0.1832    4.3389   -0.2411 H       1  LIG1        0.0000
     58 H          -1.4597    3.7301   -1.0576 H       1  LIG1        0.0000
     59 H           2.1373    4.4862    2.5396 H       1  LIG1        0.0000
     60 H           2.6758    6.5500    1.4585 H       1  LIG1        0.0000
     61 H           4.1950    6.5920   -0.3882 H       1  LIG1        0.0000
     62 H           4.6529    2.4749   -0.0822 H       1  LIG1        0.0000
     63 H           5.0364    1.4645    2.0007 H       1  LIG1        0.0000
     64 H           4.4300    1.6784    3.5018 H       1  LIG1        0.0000
     65 H           9.0444   -0.6636    4.9198 H       1  LIG1        0.0000
@<TRIPOS>BOND
     1     1     2    1
     2     2     3   ar
     3     3     4   ar
     4     4     5    1
     5     4     6   ar
     6     6     7    1
     7     7     8    1
     8     8     9    2
     9     9    10    1
    10    10    11    2
    11    10    12   am
    12    12    13    1
    13    13    14    1
    14    14    15    1
    15    15    16   am
    16    16    17    2
    17    16    18    1
    18    18    19    1
    19    19    20    1
    20    19    21    1
    21    19    22    1
    22    14    23    1
    23    23    24    1
    24    24    25   ar
    25    25    26   ar
    26    26    27   ar
    27    27    28   ar
    28    28    29    1
    29    28    30   ar
    30    30    24   ar
    31    23    31    1
    32    31    12    1
    33     9    32    1
    34    32    33    2
    35    32    34    1
    36    34     6   ar
    37    34    35   ar
    38    35     2   ar
    39     7    36    1
    40    14    37    1
    41    23    38    1
    42     1    39    1
    43     1    40    1
    44     1    41    1
    45     3    42    1
    46     5    43    1
    47     5    44    1
    48     5    45    1
    49     8    46    1
    50    13    47    1
    51    13    48    1
    52    15    49    1
    53    20    50    1
    54    20    51    1
    55    20    52    1
    56    21    53    1
    57    21    54    1
    58    21    55    1
    59    22    56    1
    60    22    57    1
    61    22    58    1
    62    25    59    1
    63    26    60    1
    64    27    61    1
    65    30    62    1
    66    31    63    1
    67    31    64    1
    68    35    65    1
