@<TRIPOS>MOLECULE
*****
 65 68 0 0 0
SMALL
USER_CHARGES

@<TRIPOS>ATOM
      1 C1          1.5220   -9.0128    1.0419 C.3     1  LIG1        0.0000
      2 C2          2.6093   -7.9551    1.1163 C.3     1  LIG1        0.0000
      3 C3          3.8278   -8.2056    1.7377 C.3     1  LIG1        0.0000
      4 C4          4.7844   -7.1964    1.7733 C.3     1  LIG1        0.0000
      5 C5          6.1051   -7.5069    2.4609 C.3     1  LIG1        0.0000
      6 C6          4.5338   -5.9516    1.1986 C.3     1  LIG1        0.0000
      7 N7          5.4742   -4.9503    1.2294 N.pl3   1  LIG1        0.0000
      8 C8          5.2595   -3.7154    0.6739 C.2     1  LIG1        0.0000
      9 C9          4.0675   -3.4397    0.0556 C.2     1  LIG1        0.0000
     10 C10         3.8208   -2.1394   -0.5381 C.2     1  LIG1        0.0000
     11 O11         4.1087   -1.9395   -1.6857 O.2     1  LIG1        0.0000
     12 N12         3.2453   -1.1154    0.2296 N.am    1  LIG1        0.0000
     13 C13         2.9474    0.2495   -0.2236 C.3     1  LIG1        0.0000
     14 C14         2.4712    1.0000    1.0000 C.3     1  LIG1        0.0000
     15 N15         1.0000    1.0000    1.0000 N.am    1  LIG1        0.0000
     16 C16         0.3150    2.1865    1.0000 C.2     1  LIG1        0.0000
     17 O17         0.9150    3.2257    1.0000 O.2     1  LIG1        0.0000
     18 O18        -0.9950    2.1865    1.0000 O.3     1  LIG1        0.0000
     19 C19        -1.6063    3.4681    1.0000 C.3     1  LIG1        0.0000
     20 C20        -3.1179    3.3085    1.0000 C.3     1  LIG1        0.0000
     21 C21        -1.1777    4.2339    2.2411 C.3     1  LIG1        0.0000
     22 C22        -1.1777    4.2339   -0.2411 C.3     1  LIG1        0.0000
     23 C23         3.0252    0.1982    2.1590 C.3     1  LIG1        0.0000
     24 C24         4.4908    0.5057    2.4201 C.3     1  LIG1        0.0000
     25 C25         4.8863    0.9387    3.6811 C.3     1  LIG1        0.0000
     26 C26         6.2295    1.2181    3.9105 C.3     1  LIG1        0.0000
     27 C27         7.1721    1.0693    2.8986 C.3     1  LIG1        0.0000
     28 C28         6.7542    0.6340    1.6453 C.3     1  LIG1        0.0000
     29 F29         7.6458    0.4879    0.6694 F       1  LIG1        0.0000
     30 C30         5.4163    0.3489    1.3935 C.3     1  LIG1        0.0000
     31 C31         2.8423   -1.2088    1.6358 C.3     1  LIG1        0.0000
     32 C32         3.0553   -4.4343   -0.0095 C.2     1  LIG1        0.0000
     33 O33         2.0003   -4.1668   -0.5664 O.2     1  LIG1        0.0000
     34 C34         3.3111   -5.7042    0.5767 C.3     1  LIG1        0.0000
     35 C35         2.3561   -6.7162    0.5423 C.3     1  LIG1        0.0000
     36 H           6.3512   -5.1297    1.6752 H       1  LIG1        0.0000
     37 H           2.8287    1.9339    1.0081 H       1  LIG1        0.0000
     38 H           2.4795    0.3438    2.9843 H       1  LIG1        0.0000
     39 H           1.8381   -9.8480    1.4918 H       1  LIG1        0.0000
     40 H           0.6992   -8.6779    1.5009 H       1  LIG1        0.0000
     41 H           1.3128   -9.2090    0.0839 H       1  LIG1        0.0000
     42 H           4.0134   -9.0966    2.1521 H       1  LIG1        0.0000
     43 H           6.0889   -8.4455    2.8055 H       1  LIG1        0.0000
     44 H           6.8539   -7.4051    1.8059 H       1  LIG1        0.0000
     45 H           6.2409   -6.8742    3.2233 H       1  LIG1        0.0000
     46 H           5.9725   -3.0157    0.7198 H       1  LIG1        0.0000
     47 H           2.2324    0.2353   -0.9226 H       1  LIG1        0.0000
     48 H           3.7698    0.6791   -0.5966 H       1  LIG1        0.0000
     49 H           0.5000    0.1340    1.0000 H       1  LIG1        0.0000
     50 H          -3.5484    4.2111    1.0000 H       1  LIG1        0.0000
     51 H          -3.3999    2.8047    0.1835 H       1  LIG1        0.0000
     52 H          -3.3999    2.8047    1.8165 H       1  LIG1        0.0000
     53 H          -1.6082    5.1365    2.2411 H       1  LIG1        0.0000
     54 H          -1.4597    3.7301    3.0576 H       1  LIG1        0.0000
     55 H          -0.1832    4.3389    2.2411 H       1  LIG1        0.0000
     56 H          -1.6082    5.1365   -0.2411 H       1  LIG1        0.0000
     57 H          -0.1832    4.3389   -0.2411 H       1  LIG1        0.0000
     58 H          -1.4597    3.7301   -1.0576 H       1  LIG1        0.0000
     59 H           4.2139    1.0477    4.4133 H       1  LIG1        0.0000
     60 H           6.5213    1.5301    4.8147 H       1  LIG1        0.0000
     61 H           8.1362    1.2723    3.0695 H       1  LIG1        0.0000
     62 H           5.1246    0.0363    0.4895 H       1  LIG1        0.0000
     63 H           3.4261   -1.8517    2.1315 H       1  LIG1        0.0000
     64 H           1.8878   -1.4965    1.7142 H       1  LIG1        0.0000
     65 H           1.4759   -6.5488    0.0983 H       1  LIG1        0.0000
@<TRIPOS>BOND
     1     1     2    1
     2     2     3   ar
     3     3     4   ar
     4     4     5    1
     5     4     6   ar
     6     6     7    1
     7     7     8    1
     8     8     9    2
     9     9    10    1
    10    10    11    2
    11    10    12   am
    12    12    13    1
    13    13    14    1
    14    14    15    1
    15    15    16   am
    16    16    17    2
    17    16    18    1
    18    18    19    1
    19    19    20    1
    20    19    21    1
    21    19    22    1
    22    14    23    1
    23    23    24    1
    24    24    25   ar
    25    25    26   ar
    26    26    27   ar
    27    27    28   ar
    28    28    29    1
    29    28    30   ar
    30    30    24   ar
    31    23    31    1
    32    31    12    1
    33     9    32    1
    34    32    33    2
    35    32    34    1
    36    34     6   ar
    37    34    35   ar
    38    35     2   ar
    39     7    36    1
    40    14    37    1
    41    23    38    1
    42     1    39    1
    43     1    40    1
    44     1    41    1
    45     3    42    1
    46     5    43    1
    47     5    44    1
    48     5    45    1
    49     8    46    1
    50    13    47    1
    51    13    48    1
    52    15    49    1
    53    20    50    1
    54    20    51    1
    55    20    52    1
    56    21    53    1
    57    21    54    1
    58    21    55    1
    59    22    56    1
    60    22    57    1
    61    22    58    1
    62    25    59    1
    63    26    60    1
    64    27    61    1
    65    30    62    1
    66    31    63    1
    67    31    64    1
    68    35    65    1
