@<TRIPOS>MOLECULE
*****
 65 68 0 0 0
SMALL
USER_CHARGES

@<TRIPOS>ATOM
      1 C1         -0.9076   -6.1608    5.1571 C.3     1  LIG1        0.0000
      2 C2          0.4234   -5.7922    4.5255 C.3     1  LIG1        0.0000
      3 C3          1.2086   -6.7387    3.8764 C.3     1  LIG1        0.0000
      4 C4          2.4182   -6.3397    3.3173 C.3     1  LIG1        0.0000
      5 C5          3.2497   -7.4022    2.6151 C.3     1  LIG1        0.0000
      6 C6          2.8440   -5.0153    3.4020 C.3     1  LIG1        0.0000
      7 N7          4.0371   -4.6139    2.8515 N.pl3   1  LIG1        0.0000
      8 C8          4.4848   -3.3197    2.9173 C.2     1  LIG1        0.0000
      9 C9          3.7324   -2.3654    3.5515 C.2     1  LIG1        0.0000
     10 C10         4.1884   -0.9908    3.6319 C.2     1  LIG1        0.0000
     11 O11         4.8608   -0.6350    4.5600 O.2     1  LIG1        0.0000
     12 N12         3.8441   -0.0795    2.6274 N.am    1  LIG1        0.0000
     13 C13         3.0381   -0.3483    1.4281 C.3     1  LIG1        0.0000
     14 C14         2.4686    1.0000    1.0000 C.3     1  LIG1        0.0000
     15 N15         1.0000    1.0000    1.0000 N.am    1  LIG1        0.0000
     16 C16         0.3150    2.1865    1.0000 C.2     1  LIG1        0.0000
     17 O17         0.9150    3.2257    1.0000 O.2     1  LIG1        0.0000
     18 O18        -0.9950    2.1865    1.0000 O.3     1  LIG1        0.0000
     19 C19        -1.6063    3.4681    1.0000 C.3     1  LIG1        0.0000
     20 C20        -3.1179    3.3085    1.0000 C.3     1  LIG1        0.0000
     21 C21        -1.1777    4.2339    2.2411 C.3     1  LIG1        0.0000
     22 C22        -1.1777    4.2339   -0.2411 C.3     1  LIG1        0.0000
     23 C23         3.0135    2.0060    1.9946 C.3     1  LIG1        0.0000
     24 C24         3.3527    3.3210    1.3116 C.3     1  LIG1        0.0000
     25 C25         4.2384    3.3280    0.2395 C.3     1  LIG1        0.0000
     26 C26         4.5433    4.5362   -0.3789 C.3     1  LIG1        0.0000
     27 C27         3.9747    5.7266    0.0618 C.3     1  LIG1        0.0000
     28 C28         3.0906    5.6958    1.1353 C.3     1  LIG1        0.0000
     29 F29         2.5405    6.8274    1.5661 F       1  LIG1        0.0000
     30 C30         2.7715    4.4993    1.7686 C.3     1  LIG1        0.0000
     31 C31         4.2354    1.3313    2.5844 C.3     1  LIG1        0.0000
     32 C32         2.4886   -2.7182    4.1401 C.2     1  LIG1        0.0000
     33 O33         1.8337   -1.8508    4.7001 O.2     1  LIG1        0.0000
     34 C34         2.0542   -4.0694    4.0536 C.3     1  LIG1        0.0000
     35 C35         0.8443   -4.4716    4.6117 C.3     1  LIG1        0.0000
     36 H           4.6021   -5.2935    2.3838 H       1  LIG1        0.0000
     37 H           2.8007    1.2251    0.0840 H       1  LIG1        0.0000
     38 H           2.3381    2.1661    2.7145 H       1  LIG1        0.0000
     39 H          -1.0828   -7.1357    5.0204 H       1  LIG1        0.0000
     40 H          -0.8783   -5.9615    6.1366 H       1  LIG1        0.0000
     41 H          -1.6381   -5.6277    4.7302 H       1  LIG1        0.0000
     42 H           0.9086   -7.6905    3.8127 H       1  LIG1        0.0000
     43 H           2.7758   -8.2815    2.6623 H       1  LIG1        0.0000
     44 H           3.3800   -7.1447    1.6577 H       1  LIG1        0.0000
     45 H           4.1402   -7.4790    3.0637 H       1  LIG1        0.0000
     46 H           5.3603   -3.0718    2.5024 H       1  LIG1        0.0000
     47 H           2.2986   -0.9869    1.6414 H       1  LIG1        0.0000
     48 H           3.6101   -0.7310    0.7026 H       1  LIG1        0.0000
     49 H           0.5000    0.1340    1.0000 H       1  LIG1        0.0000
     50 H          -3.5484    4.2111    1.0000 H       1  LIG1        0.0000
     51 H          -3.3999    2.8047    0.1835 H       1  LIG1        0.0000
     52 H          -3.3999    2.8047    1.8165 H       1  LIG1        0.0000
     53 H          -1.6082    5.1365    2.2411 H       1  LIG1        0.0000
     54 H          -1.4597    3.7301    3.0576 H       1  LIG1        0.0000
     55 H          -0.1832    4.3389    2.2411 H       1  LIG1        0.0000
     56 H          -1.6082    5.1365   -0.2411 H       1  LIG1        0.0000
     57 H          -0.1832    4.3389   -0.2411 H       1  LIG1        0.0000
     58 H          -1.4597    3.7301   -1.0576 H       1  LIG1        0.0000
     59 H           4.6507    2.4758   -0.0827 H       1  LIG1        0.0000
     60 H           5.1795    4.5491   -1.1503 H       1  LIG1        0.0000
     61 H           4.1982    6.5921   -0.3866 H       1  LIG1        0.0000
     62 H           2.1349    4.4863    2.5396 H       1  LIG1        0.0000
     63 H           5.0364    1.4645    2.0007 H       1  LIG1        0.0000
     64 H           4.4300    1.6784    3.5018 H       1  LIG1        0.0000
     65 H           0.2703   -3.8006    5.0810 H       1  LIG1        0.0000
@<TRIPOS>BOND
     1     1     2    1
     2     2     3   ar
     3     3     4   ar
     4     4     5    1
     5     4     6   ar
     6     6     7    1
     7     7     8    1
     8     8     9    2
     9     9    10    1
    10    10    11    2
    11    10    12   am
    12    12    13    1
    13    13    14    1
    14    14    15    1
    15    15    16   am
    16    16    17    2
    17    16    18    1
    18    18    19    1
    19    19    20    1
    20    19    21    1
    21    19    22    1
    22    14    23    1
    23    23    24    1
    24    24    25   ar
    25    25    26   ar
    26    26    27   ar
    27    27    28   ar
    28    28    29    1
    29    28    30   ar
    30    30    24   ar
    31    23    31    1
    32    31    12    1
    33     9    32    1
    34    32    33    2
    35    32    34    1
    36    34     6   ar
    37    34    35   ar
    38    35     2   ar
    39     7    36    1
    40    14    37    1
    41    23    38    1
    42     1    39    1
    43     1    40    1
    44     1    41    1
    45     3    42    1
    46     5    43    1
    47     5    44    1
    48     5    45    1
    49     8    46    1
    50    13    47    1
    51    13    48    1
    52    15    49    1
    53    20    50    1
    54    20    51    1
    55    20    52    1
    56    21    53    1
    57    21    54    1
    58    21    55    1
    59    22    56    1
    60    22    57    1
    61    22    58    1
    62    25    59    1
    63    26    60    1
    64    27    61    1
    65    30    62    1
    66    31    63    1
    67    31    64    1
    68    35    65    1
