@<TRIPOS>MOLECULE

  72   75
SMALL
USER_CHARGES
@<TRIPOS>ATOM
   1 C1           0.5057     1.5145    -5.9068 C.3          1    LIG   0.0000
   2 C2           0.1531     1.4050    -4.4323 C.3          1    LIG   0.0000
   3 O3           0.2085     0.0437    -4.0322 O.3          1    LIG   0.0000
   4 C4          -0.1064    -0.1697    -2.6626 C.3          1    LIG   0.0000
   5 C5          -0.3300    -1.6277    -2.3401 C.3          1    LIG   0.0000
   6 C6          -1.4690    -1.1611    -1.4439 C.3          1    LIG   0.0000
   7 O7          -2.5839    -2.0511    -1.4653 O.3          1    LIG   0.0000
   8 C8          -1.0507    -0.8686    -0.0109 C.3          1    LIG   0.0000
   9 N9           0.0969     0.0481    -0.0133 N.pl3        1    LIG   0.0000
  10 C10          1.4071    -0.3124    -0.0293 C.2          1    LIG   0.0000
  11 C11          1.9417    -1.6619    -0.0557 C.ar         1    LIG   0.0000
  12 C12          3.3234    -1.8251    -0.0818 C.ar         1    LIG   0.0000
  13 C13          3.8550    -3.1106    -0.1086 C.ar         1    LIG   0.0000
  14 C14          3.0087    -4.2127    -0.1092 C.ar         1    LIG   0.0000
  15 C15          1.6317    -4.0111    -0.0810 C.ar         1    LIG   0.0000
  16 C16          0.7215    -5.2310    -0.0828 C.3          1    LIG   0.0000
  17 N17          1.1547    -2.7537    -0.0571 N.ar         1    LIG   0.0000
  18 N18          2.0962     0.7986    -0.0261 N.2          1    LIG   0.0000
  19 N19          1.2800     1.8369     0.0092 N.2          1    LIG   0.0000
  20 C20          0.0401     1.4086     0.0104 C.2          1    LIG   0.0000
  21 N21         -1.1148     2.1984     0.0321 N.pl3        1    LIG   0.0000
  22 C22         -1.0026     3.6639     0.0569 C.3          1    LIG   0.0000
  23 C23         -2.4402     1.5627     0.0303 C.3          1    LIG   0.0000
  24 C24         -2.8871     1.3186     1.4625 C.2          1    LIG   0.0000
  25 O25         -2.1776     1.6400     2.3754 O.2          1    LIG   0.0000
  26 N26         -4.0998     0.7317     1.7110 N.am         1    LIG   0.0000
  27 C27         -4.5115     0.5068     3.0306 C.ar         1    LIG   0.0000
  28 C28         -4.1996    -0.6877     3.6711 C.ar         1    LIG   0.0000
  29 C29         -3.4074    -1.7587     2.9385 C.3          1    LIG   0.0000
  30 C30         -4.6067    -0.9147     4.9818 C.ar         1    LIG   0.0000
  31 C31         -5.3312     0.0697     5.6456 C.ar         1    LIG   0.0000
  32 C32         -5.7805    -0.1696     7.0781 C.3          1    LIG   0.0000
  33 C33         -5.6516     1.2699     5.0197 C.ar         1    LIG   0.0000
  34 C34         -5.2372     1.4816     3.7088 C.ar         1    LIG   0.0000
  35 C35         -5.5962     2.7989     3.0405 C.3          1    LIG   0.0000
  36 C36         -1.5814     0.0251    -2.3784 C.3          1    LIG   0.0000
  37 H            0.5004     0.3033    -2.0237 H            1    LIG   0.0000
  38 H            0.4666     2.4732    -6.1886 H            1    LIG   0.0000
  39 H            1.4290     1.1606    -6.0559 H            1    LIG   0.0000
  40 H           -0.1466     0.9818    -6.4460 H            1    LIG   0.0000
  41 H            0.8053     1.9377    -3.8932 H            1    LIG   0.0000
  42 H           -0.7703     1.7589    -4.2832 H            1    LIG   0.0000
  43 H           -0.6105    -2.1916    -3.1169 H            1    LIG   0.0000
  44 H            0.4264    -2.0729    -1.8609 H            1    LIG   0.0000
  45 H           -2.8467    -2.2334    -2.4128 H            1    LIG   0.0000
  46 H           -1.8133    -0.4468     0.4795 H            1    LIG   0.0000
  47 H           -0.7943    -1.7223     0.4424 H            1    LIG   0.0000
  48 H            3.9271    -1.0279    -0.0813 H            1    LIG   0.0000
  49 H            4.8462    -3.2415    -0.1274 H            1    LIG   0.0000
  50 H            3.3843    -5.1393    -0.1297 H            1    LIG   0.0000
  51 H            1.2777    -6.0618    -0.1024 H            1    LIG   0.0000
  52 H            0.1572    -5.2270     0.7428 H            1    LIG   0.0000
  53 H            0.1316    -5.2056    -0.8899 H            1    LIG   0.0000
  54 H           -1.9172     4.0681     0.0703 H            1    LIG   0.0000
  55 H           -0.5014     3.9461     0.8750 H            1    LIG   0.0000
  56 H           -0.5128     3.9746    -0.7577 H            1    LIG   0.0000
  57 H           -2.3909     0.6907    -0.4567 H            1    LIG   0.0000
  58 H           -3.0971     2.1628    -0.4262 H            1    LIG   0.0000
  59 H           -4.6910     0.4639     0.9503 H            1    LIG   0.0000
  60 H           -3.2732    -2.5450     3.5415 H            1    LIG   0.0000
  61 H           -3.9100    -2.0458     2.1231 H            1    LIG   0.0000
  62 H           -2.5179    -1.3896     2.6691 H            1    LIG   0.0000
  63 H           -4.3815    -1.7742     5.4406 H            1    LIG   0.0000
  64 H           -6.2857     0.6284     7.4067 H            1    LIG   0.0000
  65 H           -6.3718    -0.9754     7.1118 H            1    LIG   0.0000
  66 H           -4.9798    -0.3193     7.6580 H            1    LIG   0.0000
  67 H           -6.1730     1.9713     5.5057 H            1    LIG   0.0000
  68 H           -6.1147     3.3667     3.6798 H            1    LIG   0.0000
  69 H           -4.7590     3.2765     2.7740 H            1    LIG   0.0000
  70 H           -6.1510     2.6202     2.2279 H            1    LIG   0.0000
  71 H           -1.8124     0.8900    -1.9329 H            1    LIG   0.0000
  72 H           -2.1825    -0.1157    -3.1650 H            1    LIG   0.0000
@<TRIPOS>BOND
   1        1        2 1
   2        2        3 1
   3        3        4 1
   4        4        5 1
   5        5        6 1
   6        6        7 1
   7        6        8 1
   8        8        9 1
   9        9       10 1
  10       10       11 1
  11       11       12 ar
  12       12       13 ar
  13       13       14 ar
  14       14       15 ar
  15       15       16 1
  16       15       17 ar
  17       17       11 ar
  18       10       18 2
  19       18       19 1
  20       19       20 2
  21       20        9 1
  22       20       21 1
  23       21       22 1
  24       21       23 1
  25       23       24 1
  26       24       25 2
  27       24       26 am
  28       26       27 1
  29       27       28 ar
  30       28       29 1
  31       28       30 ar
  32       30       31 ar
  33       31       32 1
  34       31       33 ar
  35       33       34 ar
  36       34       27 ar
  37       34       35 1
  38        6       36 1
  39       36        4 1
  40        4       37 1
  41        1       38 1
  42        1       39 1
  43        1       40 1
  44        2       41 1
  45        2       42 1
  46        5       43 1
  47        5       44 1
  48        7       45 1
  49        8       46 1
  50        8       47 1
  51       12       48 1
  52       13       49 1
  53       14       50 1
  54       16       51 1
  55       16       52 1
  56       16       53 1
  57       22       54 1
  58       22       55 1
  59       22       56 1
  60       23       57 1
  61       23       58 1
  62       26       59 1
  63       29       60 1
  64       29       61 1
  65       29       62 1
  66       30       63 1
  67       32       64 1
  68       32       65 1
  69       32       66 1
  70       33       67 1
  71       35       68 1
  72       35       69 1
  73       35       70 1
  74       36       71 1
  75       36       72 1

@<TRIPOS>MOLECULE

  72   75
SMALL
USER_CHARGES
@<TRIPOS>ATOM
   1 C1           1.2972    -2.9065    -4.9935 C.3          1    LIG   0.0000
   2 C2           1.7469    -1.6903    -4.2005 C.3          1    LIG   0.0000
   3 O3           0.6368    -0.8332    -3.9783 O.3          1    LIG   0.0000
   4 C4           0.2013    -0.7899    -2.6258 C.3          1    LIG   0.0000
   5 C5          -0.5004    -2.0580    -2.2025 C.3          1    LIG   0.0000
   6 C6          -1.4690    -1.1611    -1.4439 C.3          1    LIG   0.0000
   7 O7          -2.8102    -1.6460    -1.4819 O.3          1    LIG   0.0000
   8 C8          -1.0507    -0.8686    -0.0109 C.3          1    LIG   0.0000
   9 N9           0.0969     0.0481    -0.0133 N.pl3        1    LIG   0.0000
  10 C10          1.4071    -0.3124    -0.0293 C.2          1    LIG   0.0000
  11 C11          1.9417    -1.6619    -0.0557 C.ar         1    LIG   0.0000
  12 C12          2.5943    -2.1366     1.0779 C.ar         1    LIG   0.0000
  13 C13          3.1146    -3.4270     1.0717 C.ar         1    LIG   0.0000
  14 C14          2.9796    -4.2253    -0.0576 C.ar         1    LIG   0.0000
  15 C15          2.3191    -3.7175    -1.1727 C.ar         1    LIG   0.0000
  16 C16          2.1820    -4.6072    -2.4000 C.3          1    LIG   0.0000
  17 N17          1.8307    -2.4650    -1.1300 N.ar         1    LIG   0.0000
  18 N18          2.0962     0.7986    -0.0261 N.2          1    LIG   0.0000
  19 N19          1.2800     1.8369     0.0092 N.2          1    LIG   0.0000
  20 C20          0.0401     1.4086     0.0104 C.2          1    LIG   0.0000
  21 N21         -1.1148     2.1984     0.0321 N.pl3        1    LIG   0.0000
  22 C22         -1.0026     3.6639     0.0569 C.3          1    LIG   0.0000
  23 C23         -2.4402     1.5627     0.0303 C.3          1    LIG   0.0000
  24 C24         -2.8871     1.3186     1.4625 C.2          1    LIG   0.0000
  25 O25         -2.1776     1.6400     2.3754 O.2          1    LIG   0.0000
  26 N26         -4.0998     0.7317     1.7110 N.am         1    LIG   0.0000
  27 C27         -4.5115     0.5068     3.0306 C.ar         1    LIG   0.0000
  28 C28         -4.1996    -0.6877     3.6711 C.ar         1    LIG   0.0000
  29 C29         -3.4074    -1.7587     2.9385 C.3          1    LIG   0.0000
  30 C30         -4.6067    -0.9147     4.9818 C.ar         1    LIG   0.0000
  31 C31         -5.3312     0.0697     5.6456 C.ar         1    LIG   0.0000
  32 C32         -5.7805    -0.1696     7.0781 C.3          1    LIG   0.0000
  33 C33         -5.6516     1.2699     5.0197 C.ar         1    LIG   0.0000
  34 C34         -5.2372     1.4816     3.7088 C.ar         1    LIG   0.0000
  35 C35         -5.5962     2.7989     3.0405 C.3          1    LIG   0.0000
  36 C36         -1.1423    -0.1061    -2.4799 C.3          1    LIG   0.0000
  37 H            0.8961    -0.4708    -1.9813 H            1    LIG   0.0000
  38 H            2.0790    -3.5101    -5.1500 H            1    LIG   0.0000
  39 H            0.5942    -3.3982    -4.4798 H            1    LIG   0.0000
  40 H            0.9227    -2.6115    -5.8725 H            1    LIG   0.0000
  41 H            2.1214    -1.9853    -3.3215 H            1    LIG   0.0000
  42 H            2.4500    -1.1986    -4.7142 H            1    LIG   0.0000
  43 H           -0.9098    -2.5813    -2.9500 H            1    LIG   0.0000
  44 H            0.0449    -2.6684    -1.6280 H            1    LIG   0.0000
  45 H           -3.0702    -1.8334    -2.4291 H            1    LIG   0.0000
  46 H           -1.8133    -0.4468     0.4795 H            1    LIG   0.0000
  47 H           -0.7943    -1.7223     0.4424 H            1    LIG   0.0000
  48 H            2.6883    -1.5571     1.8875 H            1    LIG   0.0000
  49 H            3.5858    -3.7800     1.8801 H            1    LIG   0.0000
  50 H            3.3523    -5.1531    -0.0691 H            1    LIG   0.0000
  51 H            2.6119    -5.4919    -2.2200 H            1    LIG   0.0000
  52 H            1.2130    -4.7432    -2.6065 H            1    LIG   0.0000
  53 H            2.6309    -4.1709    -3.1798 H            1    LIG   0.0000
  54 H           -1.9172     4.0681     0.0703 H            1    LIG   0.0000
  55 H           -0.5014     3.9461     0.8750 H            1    LIG   0.0000
  56 H           -0.5128     3.9746    -0.7577 H            1    LIG   0.0000
  57 H           -2.3909     0.6907    -0.4567 H            1    LIG   0.0000
  58 H           -3.0971     2.1628    -0.4262 H            1    LIG   0.0000
  59 H           -4.6910     0.4639     0.9503 H            1    LIG   0.0000
  60 H           -3.2732    -2.5450     3.5415 H            1    LIG   0.0000
  61 H           -3.9100    -2.0458     2.1231 H            1    LIG   0.0000
  62 H           -2.5179    -1.3896     2.6691 H            1    LIG   0.0000
  63 H           -4.3815    -1.7742     5.4406 H            1    LIG   0.0000
  64 H           -6.2857     0.6284     7.4067 H            1    LIG   0.0000
  65 H           -6.3718    -0.9754     7.1118 H            1    LIG   0.0000
  66 H           -4.9798    -0.3193     7.6580 H            1    LIG   0.0000
  67 H           -6.1730     1.9713     5.5057 H            1    LIG   0.0000
  68 H           -6.1147     3.3667     3.6798 H            1    LIG   0.0000
  69 H           -4.7590     3.2765     2.7740 H            1    LIG   0.0000
  70 H           -6.1510     2.6202     2.2279 H            1    LIG   0.0000
  71 H           -1.1013     0.8291    -2.1281 H            1    LIG   0.0000
  72 H           -1.7163    -0.1296    -3.2983 H            1    LIG   0.0000
@<TRIPOS>BOND
   1        1        2 1
   2        2        3 1
   3        3        4 1
   4        4        5 1
   5        5        6 1
   6        6        7 1
   7        6        8 1
   8        8        9 1
   9        9       10 1
  10       10       11 1
  11       11       12 ar
  12       12       13 ar
  13       13       14 ar
  14       14       15 ar
  15       15       16 1
  16       15       17 ar
  17       17       11 ar
  18       10       18 2
  19       18       19 1
  20       19       20 2
  21       20        9 1
  22       20       21 1
  23       21       22 1
  24       21       23 1
  25       23       24 1
  26       24       25 2
  27       24       26 am
  28       26       27 1
  29       27       28 ar
  30       28       29 1
  31       28       30 ar
  32       30       31 ar
  33       31       32 1
  34       31       33 ar
  35       33       34 ar
  36       34       27 ar
  37       34       35 1
  38        6       36 1
  39       36        4 1
  40        4       37 1
  41        1       38 1
  42        1       39 1
  43        1       40 1
  44        2       41 1
  45        2       42 1
  46        5       43 1
  47        5       44 1
  48        7       45 1
  49        8       46 1
  50        8       47 1
  51       12       48 1
  52       13       49 1
  53       14       50 1
  54       16       51 1
  55       16       52 1
  56       16       53 1
  57       22       54 1
  58       22       55 1
  59       22       56 1
  60       23       57 1
  61       23       58 1
  62       26       59 1
  63       29       60 1
  64       29       61 1
  65       29       62 1
  66       30       63 1
  67       32       64 1
  68       32       65 1
  69       32       66 1
  70       33       67 1
  71       35       68 1
  72       35       69 1
  73       35       70 1
  74       36       71 1
  75       36       72 1

@<TRIPOS>MOLECULE

  72   75
SMALL
USER_CHARGES
@<TRIPOS>ATOM
   1 C1          -2.3384    -6.2639    -3.4888 C.3          1    LIG   0.0000
   2 C2          -1.6995    -5.2743    -2.5282 C.3          1    LIG   0.0000
   3 O3          -2.5524    -4.1500    -2.3702 O.3          1    LIG   0.0000
   4 C4          -2.0449    -3.1590    -1.4864 C.3          1    LIG   0.0000
   5 C5          -2.8148    -1.8626    -1.5667 C.3          1    LIG   0.0000
   6 C6          -1.4690    -1.1611    -1.4439 C.3          1    LIG   0.0000
   7 O7          -1.3931     0.0228    -2.2363 O.3          1    LIG   0.0000
   8 C8          -1.0507    -0.8686    -0.0109 C.3          1    LIG   0.0000
   9 N9           0.0969     0.0481    -0.0133 N.pl3        1    LIG   0.0000
  10 C10          1.4071    -0.3124    -0.0293 C.2          1    LIG   0.0000
  11 C11          1.9417    -1.6619    -0.0557 C.ar         1    LIG   0.0000
  12 C12          3.3234    -1.8251    -0.0818 C.ar         1    LIG   0.0000
  13 C13          3.8550    -3.1106    -0.1086 C.ar         1    LIG   0.0000
  14 C14          3.0087    -4.2127    -0.1092 C.ar         1    LIG   0.0000
  15 C15          1.6317    -4.0111    -0.0810 C.ar         1    LIG   0.0000
  16 C16          0.7215    -5.2310    -0.0828 C.3          1    LIG   0.0000
  17 N17          1.1547    -2.7537    -0.0571 N.ar         1    LIG   0.0000
  18 N18          2.0962     0.7986    -0.0261 N.2          1    LIG   0.0000
  19 N19          1.2800     1.8369     0.0092 N.2          1    LIG   0.0000
  20 C20          0.0401     1.4086     0.0104 C.2          1    LIG   0.0000
  21 N21         -1.1148     2.1984     0.0321 N.pl3        1    LIG   0.0000
  22 C22         -1.0026     3.6639     0.0569 C.3          1    LIG   0.0000
  23 C23         -2.4402     1.5627     0.0303 C.3          1    LIG   0.0000
  24 C24         -2.8871     1.3186     1.4625 C.2          1    LIG   0.0000
  25 O25         -2.1776     1.6400     2.3754 O.2          1    LIG   0.0000
  26 N26         -4.0998     0.7317     1.7110 N.am         1    LIG   0.0000
  27 C27         -4.5115     0.5068     3.0306 C.ar         1    LIG   0.0000
  28 C28         -4.1996    -0.6877     3.6711 C.ar         1    LIG   0.0000
  29 C29         -3.4074    -1.7587     2.9385 C.3          1    LIG   0.0000
  30 C30         -4.6067    -0.9147     4.9818 C.ar         1    LIG   0.0000
  31 C31         -5.3312     0.0697     5.6456 C.ar         1    LIG   0.0000
  32 C32         -5.7805    -0.1696     7.0781 C.3          1    LIG   0.0000
  33 C33         -5.6516     1.2699     5.0197 C.ar         1    LIG   0.0000
  34 C34         -5.2372     1.4816     3.7088 C.ar         1    LIG   0.0000
  35 C35         -5.5962     2.7989     3.0405 C.3          1    LIG   0.0000
  36 C36         -0.8811    -2.3990    -2.0881 C.3          1    LIG   0.0000
  37 H           -1.8847    -3.4839    -0.5544 H            1    LIG   0.0000
  38 H           -1.7378    -7.0557    -3.6000 H            1    LIG   0.0000
  39 H           -3.2195    -6.5628    -3.1223 H            1    LIG   0.0000
  40 H           -2.4783    -5.8243    -4.3760 H            1    LIG   0.0000
  41 H           -1.5597    -5.7139    -1.6409 H            1    LIG   0.0000
  42 H           -0.8184    -4.9754    -2.8947 H            1    LIG   0.0000
  43 H           -3.2909    -1.7096    -2.4327 H            1    LIG   0.0000
  44 H           -3.4443    -1.7000    -0.8069 H            1    LIG   0.0000
  45 H           -1.6708    -0.1854    -3.1741 H            1    LIG   0.0000
  46 H           -1.8133    -0.4468     0.4795 H            1    LIG   0.0000
  47 H           -0.7943    -1.7223     0.4424 H            1    LIG   0.0000
  48 H            3.9271    -1.0279    -0.0813 H            1    LIG   0.0000
  49 H            4.8462    -3.2415    -0.1274 H            1    LIG   0.0000
  50 H            3.3843    -5.1393    -0.1297 H            1    LIG   0.0000
  51 H            1.2777    -6.0618    -0.1024 H            1    LIG   0.0000
  52 H            0.1572    -5.2270     0.7428 H            1    LIG   0.0000
  53 H            0.1316    -5.2056    -0.8899 H            1    LIG   0.0000
  54 H           -1.9172     4.0681     0.0703 H            1    LIG   0.0000
  55 H           -0.5014     3.9461     0.8750 H            1    LIG   0.0000
  56 H           -0.5128     3.9746    -0.7577 H            1    LIG   0.0000
  57 H           -2.3909     0.6907    -0.4567 H            1    LIG   0.0000
  58 H           -3.0971     2.1628    -0.4262 H            1    LIG   0.0000
  59 H           -4.6910     0.4639     0.9503 H            1    LIG   0.0000
  60 H           -3.2732    -2.5450     3.5415 H            1    LIG   0.0000
  61 H           -3.9100    -2.0458     2.1231 H            1    LIG   0.0000
  62 H           -2.5179    -1.3896     2.6691 H            1    LIG   0.0000
  63 H           -4.3815    -1.7742     5.4406 H            1    LIG   0.0000
  64 H           -6.2857     0.6284     7.4067 H            1    LIG   0.0000
  65 H           -6.3718    -0.9754     7.1118 H            1    LIG   0.0000
  66 H           -4.9798    -0.3193     7.6580 H            1    LIG   0.0000
  67 H           -6.1730     1.9713     5.5057 H            1    LIG   0.0000
  68 H           -6.1147     3.3667     3.6798 H            1    LIG   0.0000
  69 H           -4.7590     3.2765     2.7740 H            1    LIG   0.0000
  70 H           -6.1510     2.6202     2.2279 H            1    LIG   0.0000
  71 H            0.0183    -2.6655    -1.7417 H            1    LIG   0.0000
  72 H           -0.8620    -2.3831    -3.0878 H            1    LIG   0.0000
@<TRIPOS>BOND
   1        1        2 1
   2        2        3 1
   3        3        4 1
   4        4        5 1
   5        5        6 1
   6        6        7 1
   7        6        8 1
   8        8        9 1
   9        9       10 1
  10       10       11 1
  11       11       12 ar
  12       12       13 ar
  13       13       14 ar
  14       14       15 ar
  15       15       16 1
  16       15       17 ar
  17       17       11 ar
  18       10       18 2
  19       18       19 1
  20       19       20 2
  21       20        9 1
  22       20       21 1
  23       21       22 1
  24       21       23 1
  25       23       24 1
  26       24       25 2
  27       24       26 am
  28       26       27 1
  29       27       28 ar
  30       28       29 1
  31       28       30 ar
  32       30       31 ar
  33       31       32 1
  34       31       33 ar
  35       33       34 ar
  36       34       27 ar
  37       34       35 1
  38        6       36 1
  39       36        4 1
  40        4       37 1
  41        1       38 1
  42        1       39 1
  43        1       40 1
  44        2       41 1
  45        2       42 1
  46        5       43 1
  47        5       44 1
  48        7       45 1
  49        8       46 1
  50        8       47 1
  51       12       48 1
  52       13       49 1
  53       14       50 1
  54       16       51 1
  55       16       52 1
  56       16       53 1
  57       22       54 1
  58       22       55 1
  59       22       56 1
  60       23       57 1
  61       23       58 1
  62       26       59 1
  63       29       60 1
  64       29       61 1
  65       29       62 1
  66       30       63 1
  67       32       64 1
  68       32       65 1
  69       32       66 1
  70       33       67 1
  71       35       68 1
  72       35       69 1
  73       35       70 1
  74       36       71 1
  75       36       72 1

@<TRIPOS>MOLECULE

  72   75
SMALL
USER_CHARGES
@<TRIPOS>ATOM
   1 C1          -6.1632     1.7130    -1.6589 C.3          1    LIG   0.0000
   2 C2          -5.3361     0.6144    -2.3065 C.3          1    LIG   0.0000
   3 O3          -3.9772     0.7541    -1.9187 O.3          1    LIG   0.0000
   4 C4          -3.1147    -0.2286    -2.4725 C.3          1    LIG   0.0000
   5 C5          -1.6327     0.0813    -2.3084 C.3          1    LIG   0.0000
   6 C6          -1.4687    -1.1609    -1.4427 C.3          1    LIG   0.0000
   7 O7          -0.6062    -2.1436    -1.9965 O.3          1    LIG   0.0000
   8 C8          -1.0507    -0.8686    -0.0109 C.3          1    LIG   0.0000
   9 N9           0.0969     0.0481    -0.0133 N.pl3        1    LIG   0.0000
  10 C10          1.4071    -0.3124    -0.0293 C.2          1    LIG   0.0000
  11 C11          1.9417    -1.6619    -0.0557 C.ar         1    LIG   0.0000
  12 C12          3.3234    -1.8251    -0.0818 C.ar         1    LIG   0.0000
  13 C13          3.8550    -3.1106    -0.1086 C.ar         1    LIG   0.0000
  14 C14          3.0087    -4.2127    -0.1092 C.ar         1    LIG   0.0000
  15 C15          1.6317    -4.0111    -0.0810 C.ar         1    LIG   0.0000
  16 C16          0.7215    -5.2310    -0.0828 C.3          1    LIG   0.0000
  17 N17          1.1547    -2.7537    -0.0571 N.ar         1    LIG   0.0000
  18 N18          2.0962     0.7986    -0.0261 N.2          1    LIG   0.0000
  19 N19          1.2800     1.8369     0.0092 N.2          1    LIG   0.0000
  20 C20          0.0401     1.4086     0.0104 C.2          1    LIG   0.0000
  21 N21         -1.1148     2.1984     0.0321 N.pl3        1    LIG   0.0000
  22 C22         -1.0026     3.6639     0.0569 C.3          1    LIG   0.0000
  23 C23         -2.4402     1.5627     0.0303 C.3          1    LIG   0.0000
  24 C24         -2.8871     1.3186     1.4625 C.2          1    LIG   0.0000
  25 O25         -2.1776     1.6400     2.3754 O.2          1    LIG   0.0000
  26 N26         -4.0998     0.7317     1.7110 N.am         1    LIG   0.0000
  27 C27         -4.5115     0.5068     3.0306 C.ar         1    LIG   0.0000
  28 C28         -4.1996    -0.6877     3.6711 C.ar         1    LIG   0.0000
  29 C29         -3.4074    -1.7587     2.9385 C.3          1    LIG   0.0000
  30 C30         -4.6067    -0.9147     4.9818 C.ar         1    LIG   0.0000
  31 C31         -5.3312     0.0697     5.6456 C.ar         1    LIG   0.0000
  32 C32         -5.7805    -0.1696     7.0781 C.3          1    LIG   0.0000
  33 C33         -5.6516     1.2699     5.0197 C.ar         1    LIG   0.0000
  34 C34         -5.2372     1.4816     3.7088 C.ar         1    LIG   0.0000
  35 C35         -5.5962     2.7989     3.0405 C.3          1    LIG   0.0000
  36 C36         -2.9507    -1.4708    -1.6068 C.3          1    LIG   0.0000
  37 H           -3.3529    -0.4535    -3.4173 H            1    LIG   0.0000
  38 H           -7.1202     1.6146    -1.9320 H            1    LIG   0.0000
  39 H           -6.0915     1.6418    -0.6640 H            1    LIG   0.0000
  40 H           -5.8222     2.6053    -1.9547 H            1    LIG   0.0000
  41 H           -5.6771    -0.2779    -2.0107 H            1    LIG   0.0000
  42 H           -5.4079     0.6856    -3.3014 H            1    LIG   0.0000
  43 H           -1.1132     0.0552    -3.1625 H            1    LIG   0.0000
  44 H           -1.4456     0.9395    -1.8305 H            1    LIG   0.0000
  45 H           -0.8812    -2.3359    -2.9385 H            1    LIG   0.0000
  46 H           -1.8133    -0.4468     0.4795 H            1    LIG   0.0000
  47 H           -0.7943    -1.7223     0.4424 H            1    LIG   0.0000
  48 H            3.9271    -1.0279    -0.0813 H            1    LIG   0.0000
  49 H            4.8462    -3.2415    -0.1274 H            1    LIG   0.0000
  50 H            3.3843    -5.1393    -0.1297 H            1    LIG   0.0000
  51 H            1.2777    -6.0618    -0.1024 H            1    LIG   0.0000
  52 H            0.1572    -5.2270     0.7428 H            1    LIG   0.0000
  53 H            0.1316    -5.2056    -0.8899 H            1    LIG   0.0000
  54 H           -1.9172     4.0681     0.0703 H            1    LIG   0.0000
  55 H           -0.5014     3.9461     0.8750 H            1    LIG   0.0000
  56 H           -0.5128     3.9746    -0.7577 H            1    LIG   0.0000
  57 H           -2.3909     0.6907    -0.4567 H            1    LIG   0.0000
  58 H           -3.0971     2.1628    -0.4262 H            1    LIG   0.0000
  59 H           -4.6910     0.4639     0.9503 H            1    LIG   0.0000
  60 H           -3.2732    -2.5450     3.5415 H            1    LIG   0.0000
  61 H           -3.9100    -2.0458     2.1231 H            1    LIG   0.0000
  62 H           -2.5179    -1.3896     2.6691 H            1    LIG   0.0000
  63 H           -4.3815    -1.7742     5.4406 H            1    LIG   0.0000
  64 H           -6.2857     0.6284     7.4067 H            1    LIG   0.0000
  65 H           -6.3718    -0.9754     7.1118 H            1    LIG   0.0000
  66 H           -4.9798    -0.3193     7.6580 H            1    LIG   0.0000
  67 H           -6.1730     1.9713     5.5057 H            1    LIG   0.0000
  68 H           -6.1147     3.3667     3.6798 H            1    LIG   0.0000
  69 H           -4.7590     3.2765     2.7740 H            1    LIG   0.0000
  70 H           -6.1510     2.6202     2.2279 H            1    LIG   0.0000
  71 H           -3.4702    -1.4447    -0.7527 H            1    LIG   0.0000
  72 H           -3.1378    -2.3291    -2.0847 H            1    LIG   0.0000
@<TRIPOS>BOND
   1        1        2 1
   2        2        3 1
   3        3        4 1
   4        4        5 1
   5        5        6 1
   6        6        7 1
   7        6        8 1
   8        8        9 1
   9        9       10 1
  10       10       11 1
  11       11       12 ar
  12       12       13 ar
  13       13       14 ar
  14       14       15 ar
  15       15       16 1
  16       15       17 ar
  17       17       11 ar
  18       10       18 2
  19       18       19 1
  20       19       20 2
  21       20        9 1
  22       20       21 1
  23       21       22 1
  24       21       23 1
  25       23       24 1
  26       24       25 2
  27       24       26 am
  28       26       27 1
  29       27       28 ar
  30       28       29 1
  31       28       30 ar
  32       30       31 ar
  33       31       32 1
  34       31       33 ar
  35       33       34 ar
  36       34       27 ar
  37       34       35 1
  38        6       36 1
  39       36        4 1
  40        4       37 1
  41        1       38 1
  42        1       39 1
  43        1       40 1
  44        2       41 1
  45        2       42 1
  46        5       43 1
  47        5       44 1
  48        7       45 1
  49        8       46 1
  50        8       47 1
  51       12       48 1
  52       13       49 1
  53       14       50 1
  54       16       51 1
  55       16       52 1
  56       16       53 1
  57       22       54 1
  58       22       55 1
  59       22       56 1
  60       23       57 1
  61       23       58 1
  62       26       59 1
  63       29       60 1
  64       29       61 1
  65       29       62 1
  66       30       63 1
  67       32       64 1
  68       32       65 1
  69       32       66 1
  70       33       67 1
  71       35       68 1
  72       35       69 1
  73       35       70 1
  74       36       71 1
  75       36       72 1

@<TRIPOS>MOLECULE

  72   75
SMALL
USER_CHARGES
@<TRIPOS>ATOM
   1 C1          -4.4939    -5.4348    -2.6780 C.3          1    LIG   0.0000
   2 C2          -3.3462    -5.1062    -1.7371 C.3          1    LIG   0.0000
   3 O3          -2.4796    -4.1676    -2.3573 O.3          1    LIG   0.0000
   4 C4          -1.9899    -3.1620    -1.4768 C.3          1    LIG   0.0000
   5 C5          -0.8551    -2.3793    -2.0973 C.3          1    LIG   0.0000
   6 C6          -1.4698    -1.1616    -1.4465 C.3          1    LIG   0.0000
   7 O7          -1.4061    -0.0050    -2.2634 O.3          1    LIG   0.0000
   8 C8          -1.0507    -0.8686    -0.0109 C.3          1    LIG   0.0000
   9 N9           0.0969     0.0481    -0.0133 N.pl3        1    LIG   0.0000
  10 C10          1.4071    -0.3124    -0.0293 C.2          1    LIG   0.0000
  11 C11          1.9417    -1.6619    -0.0557 C.ar         1    LIG   0.0000
  12 C12          2.1637    -2.2607    -1.2921 C.ar         1    LIG   0.0000
  13 C13          2.6744    -3.5542    -1.3383 C.ar         1    LIG   0.0000
  14 C14          2.9564    -4.2325    -0.1588 C.ar         1    LIG   0.0000
  15 C15          2.7231    -3.6012     1.0597 C.ar         1    LIG   0.0000
  16 C16          3.0378    -4.3610     2.3404 C.3          1    LIG   0.0000
  17 N17          2.2273    -2.3509     1.0646 N.ar         1    LIG   0.0000
  18 N18          2.0962     0.7986    -0.0261 N.2          1    LIG   0.0000
  19 N19          1.2800     1.8369     0.0092 N.2          1    LIG   0.0000
  20 C20          0.0401     1.4086     0.0104 C.2          1    LIG   0.0000
  21 N21         -1.1148     2.1984     0.0321 N.pl3        1    LIG   0.0000
  22 C22         -1.0026     3.6639     0.0569 C.3          1    LIG   0.0000
  23 C23         -2.4402     1.5627     0.0303 C.3          1    LIG   0.0000
  24 C24         -2.8871     1.3186     1.4625 C.2          1    LIG   0.0000
  25 O25         -2.1776     1.6400     2.3754 O.2          1    LIG   0.0000
  26 N26         -4.0998     0.7317     1.7110 N.am         1    LIG   0.0000
  27 C27         -4.5115     0.5068     3.0306 C.ar         1    LIG   0.0000
  28 C28         -4.7804    -0.7839     3.4735 C.ar         1    LIG   0.0000
  29 C29         -4.6281    -1.9607     2.5232 C.3          1    LIG   0.0000
  30 C30         -5.1895    -1.0113     4.7835 C.ar         1    LIG   0.0000
  31 C31         -5.3267     0.0703     5.6471 C.ar         1    LIG   0.0000
  32 C32         -5.7734    -0.1685     7.0805 C.3          1    LIG   0.0000
  33 C33         -5.0619     1.3675     5.2204 C.ar         1    LIG   0.0000
  34 C34         -4.6537     1.5782     3.9073 C.ar         1    LIG   0.0000
  35 C35         -4.3687     3.0023     3.4581 C.3          1    LIG   0.0000
  36 C36         -2.7861    -1.8834    -1.5802 C.3          1    LIG   0.0000
  37 H           -1.8198    -3.4730    -0.5417 H            1    LIG   0.0000
  38 H           -5.1042    -6.0957    -2.2413 H            1    LIG   0.0000
  39 H           -5.0023    -4.5997    -2.8880 H            1    LIG   0.0000
  40 H           -4.1302    -5.8252    -3.5238 H            1    LIG   0.0000
  41 H           -3.7099    -4.7158    -0.8914 H            1    LIG   0.0000
  42 H           -2.8378    -5.9412    -1.5271 H            1    LIG   0.0000
  43 H            0.0558    -2.6211    -1.7629 H            1    LIG   0.0000
  44 H           -0.8502    -2.3654    -3.0972 H            1    LIG   0.0000
  45 H           -1.6878    -0.2384    -3.1941 H            1    LIG   0.0000
  46 H           -1.8133    -0.4468     0.4795 H            1    LIG   0.0000
  47 H           -0.7943    -1.7223     0.4424 H            1    LIG   0.0000
  48 H            1.9587    -1.7673    -2.1373 H            1    LIG   0.0000
  49 H            2.8386    -3.9956    -2.2204 H            1    LIG   0.0000
  50 H            3.3224    -5.1627    -0.1850 H            1    LIG   0.0000
  51 H            3.3946    -5.2667     2.1115 H            1    LIG   0.0000
  52 H            3.7217    -3.8568     2.8676 H            1    LIG   0.0000
  53 H            2.2038    -4.4588     2.8835 H            1    LIG   0.0000
  54 H           -1.9172     4.0681     0.0703 H            1    LIG   0.0000
  55 H           -0.5014     3.9461     0.8750 H            1    LIG   0.0000
  56 H           -0.5128     3.9746    -0.7577 H            1    LIG   0.0000
  57 H           -2.3909     0.6907    -0.4567 H            1    LIG   0.0000
  58 H           -3.0971     2.1628    -0.4262 H            1    LIG   0.0000
  59 H           -4.6910     0.4639     0.9503 H            1    LIG   0.0000
  60 H           -4.8597    -2.8077     3.0017 H            1    LIG   0.0000
  61 H           -5.2416    -1.8404     1.7427 H            1    LIG   0.0000
  62 H           -3.6830    -2.0082     2.2001 H            1    LIG   0.0000
  63 H           -5.3824    -1.9401     5.1001 H            1    LIG   0.0000
  64 H           -5.8215     0.7051     7.5646 H            1    LIG   0.0000
  65 H           -6.6755    -0.6000     7.0810 H            1    LIG   0.0000
  66 H           -5.1170    -0.7678     7.5387 H            1    LIG   0.0000
  67 H           -5.1636     2.1383     5.8492 H            1    LIG   0.0000
  68 H           -4.5251     3.6300     4.2207 H            1    LIG   0.0000
  69 H           -3.4174     3.0730     3.1579 H            1    LIG   0.0000
  70 H           -4.9760     3.2406     2.7003 H            1    LIG   0.0000
  71 H           -3.2530    -1.7482    -2.4541 H            1    LIG   0.0000
  72 H           -3.4296    -1.7269    -0.8308 H            1    LIG   0.0000
@<TRIPOS>BOND
   1        1        2 1
   2        2        3 1
   3        3        4 1
   4        4        5 1
   5        5        6 1
   6        6        7 1
   7        6        8 1
   8        8        9 1
   9        9       10 1
  10       10       11 1
  11       11       12 ar
  12       12       13 ar
  13       13       14 ar
  14       14       15 ar
  15       15       16 1
  16       15       17 ar
  17       17       11 ar
  18       10       18 2
  19       18       19 1
  20       19       20 2
  21       20        9 1
  22       20       21 1
  23       21       22 1
  24       21       23 1
  25       23       24 1
  26       24       25 2
  27       24       26 am
  28       26       27 1
  29       27       28 ar
  30       28       29 1
  31       28       30 ar
  32       30       31 ar
  33       31       32 1
  34       31       33 ar
  35       33       34 ar
  36       34       27 ar
  37       34       35 1
  38        6       36 1
  39       36        4 1
  40        4       37 1
  41        1       38 1
  42        1       39 1
  43        1       40 1
  44        2       41 1
  45        2       42 1
  46        5       43 1
  47        5       44 1
  48        7       45 1
  49        8       46 1
  50        8       47 1
  51       12       48 1
  52       13       49 1
  53       14       50 1
  54       16       51 1
  55       16       52 1
  56       16       53 1
  57       22       54 1
  58       22       55 1
  59       22       56 1
  60       23       57 1
  61       23       58 1
  62       26       59 1
  63       29       60 1
  64       29       61 1
  65       29       62 1
  66       30       63 1
  67       32       64 1
  68       32       65 1
  69       32       66 1
  70       33       67 1
  71       35       68 1
  72       35       69 1
  73       35       70 1
  74       36       71 1
  75       36       72 1

@<TRIPOS>MOLECULE

  72   75
SMALL
USER_CHARGES
@<TRIPOS>ATOM
   1 C1           1.7846     0.4970    -5.7491 C.3          1    LIG   0.0000
   2 C2           1.5681     0.2495    -4.2651 C.3          1    LIG   0.0000
   3 O3           0.1790     0.1087    -4.0063 O.3          1    LIG   0.0000
   4 C4          -0.1341    -0.1277    -2.6379 C.3          1    LIG   0.0000
   5 C5          -1.6132     0.0282    -2.3673 C.3          1    LIG   0.0000
   6 C6          -1.4698    -1.1616    -1.4465 C.3          1    LIG   0.0000
   7 O7          -2.5772    -2.0446    -1.5052 O.3          1    LIG   0.0000
   8 C8          -1.0507    -0.8686    -0.0109 C.3          1    LIG   0.0000
   9 N9           0.0969     0.0481    -0.0133 N.pl3        1    LIG   0.0000
  10 C10          1.4071    -0.3124    -0.0293 C.2          1    LIG   0.0000
  11 C11          1.9417    -1.6619    -0.0557 C.ar         1    LIG   0.0000
  12 C12          1.3951    -2.6063     0.8079 C.ar         1    LIG   0.0000
  13 C13          1.8947    -3.9049     0.7984 C.ar         1    LIG   0.0000
  14 C14          2.9274    -4.2458    -0.0665 C.ar         1    LIG   0.0000
  15 C15          3.4484    -3.2752    -0.9175 C.ar         1    LIG   0.0000
  16 C16          4.5795    -3.6682    -1.8569 C.3          1    LIG   0.0000
  17 N17          2.9408    -2.0302    -0.8788 N.ar         1    LIG   0.0000
  18 N18          2.0962     0.7986    -0.0261 N.2          1    LIG   0.0000
  19 N19          1.2800     1.8369     0.0092 N.2          1    LIG   0.0000
  20 C20          0.0401     1.4086     0.0104 C.2          1    LIG   0.0000
  21 N21         -1.1148     2.1984     0.0321 N.pl3        1    LIG   0.0000
  22 C22         -1.0026     3.6639     0.0569 C.3          1    LIG   0.0000
  23 C23         -2.4402     1.5627     0.0303 C.3          1    LIG   0.0000
  24 C24         -2.8871     1.3186     1.4625 C.2          1    LIG   0.0000
  25 O25         -2.1776     1.6400     2.3754 O.2          1    LIG   0.0000
  26 N26         -4.0998     0.7317     1.7110 N.am         1    LIG   0.0000
  27 C27         -4.7034     0.8763     2.9664 C.ar         1    LIG   0.0000
  28 C28         -4.0597     0.4232     4.1131 C.ar         1    LIG   0.0000
  29 C29         -2.6927    -0.2337     4.0080 C.3          1    LIG   0.0000
  30 C30         -4.6560     0.5650     5.3619 C.ar         1    LIG   0.0000
  31 C31         -5.9069     1.1669     5.4501 C.ar         1    LIG   0.0000
  32 C32         -6.5664     1.3261     6.8105 C.3          1    LIG   0.0000
  33 C33         -6.5644     1.6255     4.3133 C.ar         1    LIG   0.0000
  34 C34         -5.9547     1.4762     3.0719 C.ar         1    LIG   0.0000
  35 C35         -6.6877     1.9831     1.8404 C.3          1    LIG   0.0000
  36 C36         -0.3453    -1.5950    -2.3517 C.3          1    LIG   0.0000
  37 H            0.4610     0.3429    -1.9865 H            1    LIG   0.0000
  38 H            2.7628     0.5961    -5.9313 H            1    LIG   0.0000
  39 H            1.4248    -0.2758    -6.2719 H            1    LIG   0.0000
  40 H            1.3086     1.3335    -6.0204 H            1    LIG   0.0000
  41 H            2.0441    -0.5871    -3.9937 H            1    LIG   0.0000
  42 H            1.9279     1.0222    -3.7422 H            1    LIG   0.0000
  43 H           -1.8711     0.8821    -1.9153 H            1    LIG   0.0000
  44 H           -2.2045    -0.1213    -3.1598 H            1    LIG   0.0000
  45 H           -2.8204    -2.2110    -2.4608 H            1    LIG   0.0000
  46 H           -1.8133    -0.4468     0.4795 H            1    LIG   0.0000
  47 H           -0.7943    -1.7223     0.4424 H            1    LIG   0.0000
  48 H            0.6520    -2.3546     1.4280 H            1    LIG   0.0000
  49 H            1.5105    -4.5929     1.4141 H            1    LIG   0.0000
  50 H            3.2918    -5.1769    -0.0775 H            1    LIG   0.0000
  51 H            4.8028    -4.6339    -1.7242 H            1    LIG   0.0000
  52 H            4.2936    -3.5192    -2.8035 H            1    LIG   0.0000
  53 H            5.3854    -3.1096    -1.6603 H            1    LIG   0.0000
  54 H           -1.9172     4.0681     0.0703 H            1    LIG   0.0000
  55 H           -0.5014     3.9461     0.8750 H            1    LIG   0.0000
  56 H           -0.5128     3.9746    -0.7577 H            1    LIG   0.0000
  57 H           -2.3909     0.6907    -0.4567 H            1    LIG   0.0000
  58 H           -3.0971     2.1628    -0.4262 H            1    LIG   0.0000
  59 H           -4.5539     0.2001     0.9961 H            1    LIG   0.0000
  60 H           -2.3785    -0.4972     4.9201 H            1    LIG   0.0000
  61 H           -2.7573    -1.0470     3.4299 H            1    LIG   0.0000
  62 H           -2.0432     0.4110     3.6051 H            1    LIG   0.0000
  63 H           -4.1916     0.2387     6.1851 H            1    LIG   0.0000
  64 H           -7.4538     1.7739     6.7004 H            1    LIG   0.0000
  65 H           -6.6967     0.4255     7.2252 H            1    LIG   0.0000
  66 H           -5.9827     1.8836     7.4008 H            1    LIG   0.0000
  67 H           -7.4635     2.0569     4.3875 H            1    LIG   0.0000
  68 H           -7.5642     2.3794     2.1137 H            1    LIG   0.0000
  69 H           -6.1335     2.6808     1.3863 H            1    LIG   0.0000
  70 H           -6.8475     1.2226     1.2110 H            1    LIG   0.0000
  71 H           -0.6272    -2.1410    -3.1406 H            1    LIG   0.0000
  72 H            0.4169    -2.0471    -1.8885 H            1    LIG   0.0000
@<TRIPOS>BOND
   1        1        2 1
   2        2        3 1
   3        3        4 1
   4        4        5 1
   5        5        6 1
   6        6        7 1
   7        6        8 1
   8        8        9 1
   9        9       10 1
  10       10       11 1
  11       11       12 ar
  12       12       13 ar
  13       13       14 ar
  14       14       15 ar
  15       15       16 1
  16       15       17 ar
  17       17       11 ar
  18       10       18 2
  19       18       19 1
  20       19       20 2
  21       20        9 1
  22       20       21 1
  23       21       22 1
  24       21       23 1
  25       23       24 1
  26       24       25 2
  27       24       26 am
  28       26       27 1
  29       27       28 ar
  30       28       29 1
  31       28       30 ar
  32       30       31 ar
  33       31       32 1
  34       31       33 ar
  35       33       34 ar
  36       34       27 ar
  37       34       35 1
  38        6       36 1
  39       36        4 1
  40        4       37 1
  41        1       38 1
  42        1       39 1
  43        1       40 1
  44        2       41 1
  45        2       42 1
  46        5       43 1
  47        5       44 1
  48        7       45 1
  49        8       46 1
  50        8       47 1
  51       12       48 1
  52       13       49 1
  53       14       50 1
  54       16       51 1
  55       16       52 1
  56       16       53 1
  57       22       54 1
  58       22       55 1
  59       22       56 1
  60       23       57 1
  61       23       58 1
  62       26       59 1
  63       29       60 1
  64       29       61 1
  65       29       62 1
  66       30       63 1
  67       32       64 1
  68       32       65 1
  69       32       66 1
  70       33       67 1
  71       35       68 1
  72       35       69 1
  73       35       70 1
  74       36       71 1
  75       36       72 1

@<TRIPOS>MOLECULE

  72   75
SMALL
USER_CHARGES
@<TRIPOS>ATOM
   1 C1          -6.1632     1.7130    -1.6589 C.3          1    LIG   0.0000
   2 C2          -5.3361     0.6144    -2.3065 C.3          1    LIG   0.0000
   3 O3          -3.9772     0.7541    -1.9187 O.3          1    LIG   0.0000
   4 C4          -3.1147    -0.2286    -2.4725 C.3          1    LIG   0.0000
   5 C5          -1.6327     0.0813    -2.3084 C.3          1    LIG   0.0000
   6 C6          -1.4687    -1.1609    -1.4427 C.3          1    LIG   0.0000
   7 O7          -0.6062    -2.1436    -1.9965 O.3          1    LIG   0.0000
   8 C8          -1.0507    -0.8686    -0.0109 C.3          1    LIG   0.0000
   9 N9           0.0969     0.0481    -0.0133 N.pl3        1    LIG   0.0000
  10 C10          1.4071    -0.3124    -0.0293 C.2          1    LIG   0.0000
  11 C11          1.9417    -1.6619    -0.0557 C.ar         1    LIG   0.0000
  12 C12          1.3951    -2.6063     0.8079 C.ar         1    LIG   0.0000
  13 C13          1.8947    -3.9049     0.7984 C.ar         1    LIG   0.0000
  14 C14          2.9274    -4.2458    -0.0665 C.ar         1    LIG   0.0000
  15 C15          3.4484    -3.2752    -0.9175 C.ar         1    LIG   0.0000
  16 C16          4.5795    -3.6682    -1.8569 C.3          1    LIG   0.0000
  17 N17          2.9408    -2.0302    -0.8788 N.ar         1    LIG   0.0000
  18 N18          2.0962     0.7986    -0.0261 N.2          1    LIG   0.0000
  19 N19          1.2800     1.8369     0.0092 N.2          1    LIG   0.0000
  20 C20          0.0401     1.4086     0.0104 C.2          1    LIG   0.0000
  21 N21         -1.1148     2.1984     0.0321 N.pl3        1    LIG   0.0000
  22 C22         -1.0026     3.6639     0.0569 C.3          1    LIG   0.0000
  23 C23         -2.4402     1.5627     0.0303 C.3          1    LIG   0.0000
  24 C24         -2.8871     1.3186     1.4625 C.2          1    LIG   0.0000
  25 O25         -2.1776     1.6400     2.3754 O.2          1    LIG   0.0000
  26 N26         -4.0998     0.7317     1.7110 N.am         1    LIG   0.0000
  27 C27         -4.7034     0.8763     2.9664 C.ar         1    LIG   0.0000
  28 C28         -4.0597     0.4232     4.1131 C.ar         1    LIG   0.0000
  29 C29         -2.6927    -0.2337     4.0080 C.3          1    LIG   0.0000
  30 C30         -4.6560     0.5650     5.3619 C.ar         1    LIG   0.0000
  31 C31         -5.9069     1.1669     5.4501 C.ar         1    LIG   0.0000
  32 C32         -6.5664     1.3261     6.8105 C.3          1    LIG   0.0000
  33 C33         -6.5644     1.6255     4.3133 C.ar         1    LIG   0.0000
  34 C34         -5.9547     1.4762     3.0719 C.ar         1    LIG   0.0000
  35 C35         -6.6877     1.9831     1.8404 C.3          1    LIG   0.0000
  36 C36         -2.9507    -1.4708    -1.6068 C.3          1    LIG   0.0000
  37 H           -3.3529    -0.4535    -3.4173 H            1    LIG   0.0000
  38 H           -7.1202     1.6146    -1.9320 H            1    LIG   0.0000
  39 H           -6.0915     1.6418    -0.6640 H            1    LIG   0.0000
  40 H           -5.8222     2.6053    -1.9547 H            1    LIG   0.0000
  41 H           -5.6771    -0.2779    -2.0107 H            1    LIG   0.0000
  42 H           -5.4079     0.6856    -3.3014 H            1    LIG   0.0000
  43 H           -1.1132     0.0552    -3.1625 H            1    LIG   0.0000
  44 H           -1.4456     0.9395    -1.8305 H            1    LIG   0.0000
  45 H           -0.8812    -2.3359    -2.9385 H            1    LIG   0.0000
  46 H           -1.8133    -0.4468     0.4795 H            1    LIG   0.0000
  47 H           -0.7943    -1.7223     0.4424 H            1    LIG   0.0000
  48 H            0.6520    -2.3546     1.4280 H            1    LIG   0.0000
  49 H            1.5105    -4.5929     1.4141 H            1    LIG   0.0000
  50 H            3.2918    -5.1769    -0.0775 H            1    LIG   0.0000
  51 H            4.8028    -4.6339    -1.7242 H            1    LIG   0.0000
  52 H            4.2936    -3.5192    -2.8035 H            1    LIG   0.0000
  53 H            5.3854    -3.1096    -1.6603 H            1    LIG   0.0000
  54 H           -1.9172     4.0681     0.0703 H            1    LIG   0.0000
  55 H           -0.5014     3.9461     0.8750 H            1    LIG   0.0000
  56 H           -0.5128     3.9746    -0.7577 H            1    LIG   0.0000
  57 H           -2.3909     0.6907    -0.4567 H            1    LIG   0.0000
  58 H           -3.0971     2.1628    -0.4262 H            1    LIG   0.0000
  59 H           -4.5539     0.2001     0.9961 H            1    LIG   0.0000
  60 H           -2.3785    -0.4972     4.9201 H            1    LIG   0.0000
  61 H           -2.7573    -1.0470     3.4299 H            1    LIG   0.0000
  62 H           -2.0432     0.4110     3.6051 H            1    LIG   0.0000
  63 H           -4.1916     0.2387     6.1851 H            1    LIG   0.0000
  64 H           -7.4538     1.7739     6.7004 H            1    LIG   0.0000
  65 H           -6.6967     0.4255     7.2252 H            1    LIG   0.0000
  66 H           -5.9827     1.8836     7.4008 H            1    LIG   0.0000
  67 H           -7.4635     2.0569     4.3875 H            1    LIG   0.0000
  68 H           -7.5642     2.3794     2.1137 H            1    LIG   0.0000
  69 H           -6.1335     2.6808     1.3863 H            1    LIG   0.0000
  70 H           -6.8475     1.2226     1.2110 H            1    LIG   0.0000
  71 H           -3.4702    -1.4447    -0.7527 H            1    LIG   0.0000
  72 H           -3.1378    -2.3291    -2.0847 H            1    LIG   0.0000
@<TRIPOS>BOND
   1        1        2 1
   2        2        3 1
   3        3        4 1
   4        4        5 1
   5        5        6 1
   6        6        7 1
   7        6        8 1
   8        8        9 1
   9        9       10 1
  10       10       11 1
  11       11       12 ar
  12       12       13 ar
  13       13       14 ar
  14       14       15 ar
  15       15       16 1
  16       15       17 ar
  17       17       11 ar
  18       10       18 2
  19       18       19 1
  20       19       20 2
  21       20        9 1
  22       20       21 1
  23       21       22 1
  24       21       23 1
  25       23       24 1
  26       24       25 2
  27       24       26 am
  28       26       27 1
  29       27       28 ar
  30       28       29 1
  31       28       30 ar
  32       30       31 ar
  33       31       32 1
  34       31       33 ar
  35       33       34 ar
  36       34       27 ar
  37       34       35 1
  38        6       36 1
  39       36        4 1
  40        4       37 1
  41        1       38 1
  42        1       39 1
  43        1       40 1
  44        2       41 1
  45        2       42 1
  46        5       43 1
  47        5       44 1
  48        7       45 1
  49        8       46 1
  50        8       47 1
  51       12       48 1
  52       13       49 1
  53       14       50 1
  54       16       51 1
  55       16       52 1
  56       16       53 1
  57       22       54 1
  58       22       55 1
  59       22       56 1
  60       23       57 1
  61       23       58 1
  62       26       59 1
  63       29       60 1
  64       29       61 1
  65       29       62 1
  66       30       63 1
  67       32       64 1
  68       32       65 1
  69       32       66 1
  70       33       67 1
  71       35       68 1
  72       35       69 1
  73       35       70 1
  74       36       71 1
  75       36       72 1

@<TRIPOS>MOLECULE

  72   75
SMALL
USER_CHARGES
@<TRIPOS>ATOM
   1 C1          -0.4464    -5.9376    -1.5347 C.3          1    LIG   0.0000
   2 C2          -1.7608    -5.4408    -2.1144 C.3          1    LIG   0.0000
   3 O3          -2.1737    -4.2736    -1.4191 O.3          1    LIG   0.0000
   4 C4          -2.0907    -3.0831    -2.1888 C.3          1    LIG   0.0000
   5 C5          -2.8007    -1.8889    -1.5653 C.3          1    LIG   0.0000
   6 C6          -1.4687    -1.1609    -1.4427 C.3          1    LIG   0.0000
   7 O7          -1.3857     0.0295    -2.2124 O.3          1    LIG   0.0000
   8 C8          -1.0507    -0.8686    -0.0109 C.3          1    LIG   0.0000
   9 N9           0.0969     0.0481    -0.0133 N.pl3        1    LIG   0.0000
  10 C10          1.4071    -0.3124    -0.0293 C.2          1    LIG   0.0000
  11 C11          1.9417    -1.6619    -0.0557 C.ar         1    LIG   0.0000
  12 C12          1.3951    -2.6063     0.8079 C.ar         1    LIG   0.0000
  13 C13          1.8947    -3.9049     0.7984 C.ar         1    LIG   0.0000
  14 C14          2.9274    -4.2458    -0.0665 C.ar         1    LIG   0.0000
  15 C15          3.4484    -3.2752    -0.9175 C.ar         1    LIG   0.0000
  16 C16          4.5795    -3.6682    -1.8569 C.3          1    LIG   0.0000
  17 N17          2.9408    -2.0302    -0.8788 N.ar         1    LIG   0.0000
  18 N18          2.0962     0.7986    -0.0261 N.2          1    LIG   0.0000
  19 N19          1.2800     1.8369     0.0092 N.2          1    LIG   0.0000
  20 C20          0.0401     1.4086     0.0104 C.2          1    LIG   0.0000
  21 N21         -1.1148     2.1984     0.0321 N.pl3        1    LIG   0.0000
  22 C22         -1.0026     3.6639     0.0569 C.3          1    LIG   0.0000
  23 C23         -2.4402     1.5627     0.0303 C.3          1    LIG   0.0000
  24 C24         -2.8871     1.3186     1.4625 C.2          1    LIG   0.0000
  25 O25         -2.1776     1.6400     2.3754 O.2          1    LIG   0.0000
  26 N26         -4.0998     0.7317     1.7110 N.am         1    LIG   0.0000
  27 C27         -4.7034     0.8763     2.9664 C.ar         1    LIG   0.0000
  28 C28         -4.0597     0.4232     4.1131 C.ar         1    LIG   0.0000
  29 C29         -2.6927    -0.2337     4.0080 C.3          1    LIG   0.0000
  30 C30         -4.6560     0.5650     5.3619 C.ar         1    LIG   0.0000
  31 C31         -5.9069     1.1669     5.4501 C.ar         1    LIG   0.0000
  32 C32         -6.5664     1.3261     6.8105 C.3          1    LIG   0.0000
  33 C33         -6.5644     1.6255     4.3133 C.ar         1    LIG   0.0000
  34 C34         -5.9547     1.4762     3.0719 C.ar         1    LIG   0.0000
  35 C35         -6.6877     1.9831     1.8404 C.3          1    LIG   0.0000
  36 C36         -0.7587    -2.3551    -2.0663 C.3          1    LIG   0.0000
  37 H           -2.3576    -3.2281    -3.1416 H            1    LIG   0.0000
  38 H           -0.1557    -6.7596    -2.0243 H            1    LIG   0.0000
  39 H            0.2506    -5.2273    -1.6325 H            1    LIG   0.0000
  40 H           -0.5695    -6.1527    -0.5659 H            1    LIG   0.0000
  41 H           -1.6377    -5.2257    -3.0832 H            1    LIG   0.0000
  42 H           -2.4579    -6.1511    -2.0166 H            1    LIG   0.0000
  43 H           -3.4564    -1.4408    -2.1730 H            1    LIG   0.0000
  44 H           -3.2398    -2.0869    -0.6889 H            1    LIG   0.0000
  45 H           -1.6608    -0.1627    -3.1544 H            1    LIG   0.0000
  46 H           -1.8133    -0.4468     0.4795 H            1    LIG   0.0000
  47 H           -0.7943    -1.7223     0.4424 H            1    LIG   0.0000
  48 H            0.6520    -2.3546     1.4280 H            1    LIG   0.0000
  49 H            1.5105    -4.5929     1.4141 H            1    LIG   0.0000
  50 H            3.2918    -5.1769    -0.0775 H            1    LIG   0.0000
  51 H            4.8028    -4.6339    -1.7242 H            1    LIG   0.0000
  52 H            4.2936    -3.5192    -2.8035 H            1    LIG   0.0000
  53 H            5.3854    -3.1096    -1.6603 H            1    LIG   0.0000
  54 H           -1.9172     4.0681     0.0703 H            1    LIG   0.0000
  55 H           -0.5014     3.9461     0.8750 H            1    LIG   0.0000
  56 H           -0.5128     3.9746    -0.7577 H            1    LIG   0.0000
  57 H           -2.3909     0.6907    -0.4567 H            1    LIG   0.0000
  58 H           -3.0971     2.1628    -0.4262 H            1    LIG   0.0000
  59 H           -4.5539     0.2001     0.9961 H            1    LIG   0.0000
  60 H           -2.3785    -0.4972     4.9201 H            1    LIG   0.0000
  61 H           -2.7573    -1.0470     3.4299 H            1    LIG   0.0000
  62 H           -2.0432     0.4110     3.6051 H            1    LIG   0.0000
  63 H           -4.1916     0.2387     6.1851 H            1    LIG   0.0000
  64 H           -7.4538     1.7739     6.7004 H            1    LIG   0.0000
  65 H           -6.6967     0.4255     7.2252 H            1    LIG   0.0000
  66 H           -5.9827     1.8836     7.4008 H            1    LIG   0.0000
  67 H           -7.4635     2.0569     4.3875 H            1    LIG   0.0000
  68 H           -7.5642     2.3794     2.1137 H            1    LIG   0.0000
  69 H           -6.1335     2.6808     1.3863 H            1    LIG   0.0000
  70 H           -6.8475     1.2226     1.2110 H            1    LIG   0.0000
  71 H           -0.1030    -2.8032    -1.4586 H            1    LIG   0.0000
  72 H           -0.3196    -2.1571    -2.9426 H            1    LIG   0.0000
@<TRIPOS>BOND
   1        1        2 1
   2        2        3 1
   3        3        4 1
   4        4        5 1
   5        5        6 1
   6        6        7 1
   7        6        8 1
   8        8        9 1
   9        9       10 1
  10       10       11 1
  11       11       12 ar
  12       12       13 ar
  13       13       14 ar
  14       14       15 ar
  15       15       16 1
  16       15       17 ar
  17       17       11 ar
  18       10       18 2
  19       18       19 1
  20       19       20 2
  21       20        9 1
  22       20       21 1
  23       21       22 1
  24       21       23 1
  25       23       24 1
  26       24       25 2
  27       24       26 am
  28       26       27 1
  29       27       28 ar
  30       28       29 1
  31       28       30 ar
  32       30       31 ar
  33       31       32 1
  34       31       33 ar
  35       33       34 ar
  36       34       27 ar
  37       34       35 1
  38        6       36 1
  39       36        4 1
  40        4       37 1
  41        1       38 1
  42        1       39 1
  43        1       40 1
  44        2       41 1
  45        2       42 1
  46        5       43 1
  47        5       44 1
  48        7       45 1
  49        8       46 1
  50        8       47 1
  51       12       48 1
  52       13       49 1
  53       14       50 1
  54       16       51 1
  55       16       52 1
  56       16       53 1
  57       22       54 1
  58       22       55 1
  59       22       56 1
  60       23       57 1
  61       23       58 1
  62       26       59 1
  63       29       60 1
  64       29       61 1
  65       29       62 1
  66       30       63 1
  67       32       64 1
  68       32       65 1
  69       32       66 1
  70       33       67 1
  71       35       68 1
  72       35       69 1
  73       35       70 1
  74       36       71 1
  75       36       72 1

@<TRIPOS>MOLECULE

  72   75
SMALL
USER_CHARGES
@<TRIPOS>ATOM
   1 C1          -2.2830    -5.0963     0.8341 C.3          1    LIG   0.0000
   2 C2          -1.5634    -4.1784    -0.1405 C.3          1    LIG   0.0000
   3 O3          -2.1737    -4.2736    -1.4191 O.3          1    LIG   0.0000
   4 C4          -2.0907    -3.0831    -2.1888 C.3          1    LIG   0.0000
   5 C5          -2.8007    -1.8889    -1.5653 C.3          1    LIG   0.0000
   6 C6          -1.4687    -1.1609    -1.4427 C.3          1    LIG   0.0000
   7 O7          -1.3857     0.0295    -2.2124 O.3          1    LIG   0.0000
   8 C8          -1.0507    -0.8686    -0.0109 C.3          1    LIG   0.0000
   9 N9           0.0969     0.0481    -0.0133 N.pl3        1    LIG   0.0000
  10 C10          1.4071    -0.3124    -0.0293 C.2          1    LIG   0.0000
  11 C11          1.9417    -1.6619    -0.0557 C.ar         1    LIG   0.0000
  12 C12          2.5943    -2.1366     1.0779 C.ar         1    LIG   0.0000
  13 C13          3.1146    -3.4270     1.0717 C.ar         1    LIG   0.0000
  14 C14          2.9796    -4.2253    -0.0576 C.ar         1    LIG   0.0000
  15 C15          2.3191    -3.7175    -1.1727 C.ar         1    LIG   0.0000
  16 C16          2.1820    -4.6072    -2.4000 C.3          1    LIG   0.0000
  17 N17          1.8307    -2.4650    -1.1300 N.ar         1    LIG   0.0000
  18 N18          2.0962     0.7986    -0.0261 N.2          1    LIG   0.0000
  19 N19          1.2800     1.8369     0.0092 N.2          1    LIG   0.0000
  20 C20          0.0401     1.4086     0.0104 C.2          1    LIG   0.0000
  21 N21         -1.1148     2.1984     0.0321 N.pl3        1    LIG   0.0000
  22 C22         -1.0026     3.6639     0.0569 C.3          1    LIG   0.0000
  23 C23         -2.4402     1.5627     0.0303 C.3          1    LIG   0.0000
  24 C24         -2.8871     1.3186     1.4625 C.2          1    LIG   0.0000
  25 O25         -2.1776     1.6400     2.3754 O.2          1    LIG   0.0000
  26 N26         -4.0998     0.7317     1.7110 N.am         1    LIG   0.0000
  27 C27         -4.7034     0.8763     2.9664 C.ar         1    LIG   0.0000
  28 C28         -4.9874    -0.2418     3.7435 C.ar         1    LIG   0.0000
  29 C29         -4.6426    -1.6310     3.2313 C.3          1    LIG   0.0000
  30 C30         -5.5869    -0.1023     4.9911 C.ar         1    LIG   0.0000
  31 C31         -5.8996     1.1719     5.4531 C.ar         1    LIG   0.0000
  32 C32         -6.5550     1.3341     6.8151 C.3          1    LIG   0.0000
  33 C33         -5.6224     2.3005     4.6886 C.ar         1    LIG   0.0000
  34 C34         -5.0227     2.1441     3.4432 C.ar         1    LIG   0.0000
  35 C35         -4.7270     3.3884     2.6214 C.3          1    LIG   0.0000
  36 C36         -0.7587    -2.3551    -2.0663 C.3          1    LIG   0.0000
  37 H           -2.3576    -3.2281    -3.1416 H            1    LIG   0.0000
  38 H           -1.8532    -5.0293     1.7345 H            1    LIG   0.0000
  39 H           -3.2429    -4.8239     0.9017 H            1    LIG   0.0000
  40 H           -2.2265    -6.0397     0.5071 H            1    LIG   0.0000
  41 H           -1.6199    -3.2350     0.1864 H            1    LIG   0.0000
  42 H           -0.6036    -4.4508    -0.2082 H            1    LIG   0.0000
  43 H           -3.4564    -1.4408    -2.1730 H            1    LIG   0.0000
  44 H           -3.2398    -2.0869    -0.6889 H            1    LIG   0.0000
  45 H           -1.6608    -0.1627    -3.1544 H            1    LIG   0.0000
  46 H           -1.8133    -0.4468     0.4795 H            1    LIG   0.0000
  47 H           -0.7943    -1.7223     0.4424 H            1    LIG   0.0000
  48 H            2.6883    -1.5571     1.8875 H            1    LIG   0.0000
  49 H            3.5858    -3.7800     1.8801 H            1    LIG   0.0000
  50 H            3.3523    -5.1531    -0.0691 H            1    LIG   0.0000
  51 H            2.6119    -5.4919    -2.2200 H            1    LIG   0.0000
  52 H            1.2130    -4.7432    -2.6065 H            1    LIG   0.0000
  53 H            2.6309    -4.1709    -3.1798 H            1    LIG   0.0000
  54 H           -1.9172     4.0681     0.0703 H            1    LIG   0.0000
  55 H           -0.5014     3.9461     0.8750 H            1    LIG   0.0000
  56 H           -0.5128     3.9746    -0.7577 H            1    LIG   0.0000
  57 H           -2.3909     0.6907    -0.4567 H            1    LIG   0.0000
  58 H           -3.0971     2.1628    -0.4262 H            1    LIG   0.0000
  59 H           -4.5539     0.2001     0.9961 H            1    LIG   0.0000
  60 H           -4.9127    -2.3133     3.9106 H            1    LIG   0.0000
  61 H           -5.1308    -1.8013     2.3754 H            1    LIG   0.0000
  62 H           -3.6574    -1.6921     3.0710 H            1    LIG   0.0000
  63 H           -5.7903    -0.9073     5.5483 H            1    LIG   0.0000
  64 H           -6.7124     2.3050     6.9958 H            1    LIG   0.0000
  65 H           -7.4285     0.8474     6.8248 H            1    LIG   0.0000
  66 H           -5.9553     0.9566     7.5207 H            1    LIG   0.0000
  67 H           -5.8512     3.2122     5.0298 H            1    LIG   0.0000
  68 H           -5.0251     4.1992     3.1251 H            1    LIG   0.0000
  69 H           -3.7441     3.4469     2.4471 H            1    LIG   0.0000
  70 H           -5.2174     3.3375     1.7514 H            1    LIG   0.0000
  71 H           -0.1030    -2.8032    -1.4586 H            1    LIG   0.0000
  72 H           -0.3196    -2.1571    -2.9426 H            1    LIG   0.0000
@<TRIPOS>BOND
   1        1        2 1
   2        2        3 1
   3        3        4 1
   4        4        5 1
   5        5        6 1
   6        6        7 1
   7        6        8 1
   8        8        9 1
   9        9       10 1
  10       10       11 1
  11       11       12 ar
  12       12       13 ar
  13       13       14 ar
  14       14       15 ar
  15       15       16 1
  16       15       17 ar
  17       17       11 ar
  18       10       18 2
  19       18       19 1
  20       19       20 2
  21       20        9 1
  22       20       21 1
  23       21       22 1
  24       21       23 1
  25       23       24 1
  26       24       25 2
  27       24       26 am
  28       26       27 1
  29       27       28 ar
  30       28       29 1
  31       28       30 ar
  32       30       31 ar
  33       31       32 1
  34       31       33 ar
  35       33       34 ar
  36       34       27 ar
  37       34       35 1
  38        6       36 1
  39       36        4 1
  40        4       37 1
  41        1       38 1
  42        1       39 1
  43        1       40 1
  44        2       41 1
  45        2       42 1
  46        5       43 1
  47        5       44 1
  48        7       45 1
  49        8       46 1
  50        8       47 1
  51       12       48 1
  52       13       49 1
  53       14       50 1
  54       16       51 1
  55       16       52 1
  56       16       53 1
  57       22       54 1
  58       22       55 1
  59       22       56 1
  60       23       57 1
  61       23       58 1
  62       26       59 1
  63       29       60 1
  64       29       61 1
  65       29       62 1
  66       30       63 1
  67       32       64 1
  68       32       65 1
  69       32       66 1
  70       33       67 1
  71       35       68 1
  72       35       69 1
  73       35       70 1
  74       36       71 1
  75       36       72 1

@<TRIPOS>MOLECULE

  72   75
SMALL
USER_CHARGES
@<TRIPOS>ATOM
   1 C1           1.3052     2.1669    -3.7979 C.3          1    LIG   0.0000
   2 C2           0.1531     1.4050    -4.4323 C.3          1    LIG   0.0000
   3 O3           0.2085     0.0437    -4.0322 O.3          1    LIG   0.0000
   4 C4          -0.1064    -0.1697    -2.6626 C.3          1    LIG   0.0000
   5 C5          -0.3300    -1.6277    -2.3401 C.3          1    LIG   0.0000
   6 C6          -1.4690    -1.1611    -1.4439 C.3          1    LIG   0.0000
   7 O7          -2.5839    -2.0511    -1.4653 O.3          1    LIG   0.0000
   8 C8          -1.0507    -0.8686    -0.0109 C.3          1    LIG   0.0000
   9 N9           0.0969     0.0481    -0.0133 N.pl3        1    LIG   0.0000
  10 C10          1.4071    -0.3124    -0.0293 C.2          1    LIG   0.0000
  11 C11          1.9417    -1.6619    -0.0557 C.ar         1    LIG   0.0000
  12 C12          1.3951    -2.6063     0.8079 C.ar         1    LIG   0.0000
  13 C13          1.8947    -3.9049     0.7984 C.ar         1    LIG   0.0000
  14 C14          2.9274    -4.2458    -0.0665 C.ar         1    LIG   0.0000
  15 C15          3.4484    -3.2752    -0.9175 C.ar         1    LIG   0.0000
  16 C16          4.5795    -3.6682    -1.8569 C.3          1    LIG   0.0000
  17 N17          2.9408    -2.0302    -0.8788 N.ar         1    LIG   0.0000
  18 N18          2.0962     0.7986    -0.0261 N.2          1    LIG   0.0000
  19 N19          1.2800     1.8369     0.0092 N.2          1    LIG   0.0000
  20 C20          0.0401     1.4086     0.0104 C.2          1    LIG   0.0000
  21 N21         -1.1148     2.1984     0.0321 N.pl3        1    LIG   0.0000
  22 C22         -1.0026     3.6639     0.0569 C.3          1    LIG   0.0000
  23 C23         -2.4402     1.5627     0.0303 C.3          1    LIG   0.0000
  24 C24         -2.8871     1.3186     1.4625 C.2          1    LIG   0.0000
  25 O25         -2.1776     1.6400     2.3754 O.2          1    LIG   0.0000
  26 N26         -4.0998     0.7317     1.7110 N.am         1    LIG   0.0000
  27 C27         -4.3447     0.1284     2.9509 C.ar         1    LIG   0.0000
  28 C28         -4.0506    -1.2165     3.1493 C.ar         1    LIG   0.0000
  29 C29         -3.4600    -2.0405     2.0165 C.3          1    LIG   0.0000
  30 C30         -4.2924    -1.8194     4.3795 C.ar         1    LIG   0.0000
  31 C31         -4.8330    -1.0591     5.4112 C.ar         1    LIG   0.0000
  32 C32         -5.1008    -1.7094     6.7589 C.3          1    LIG   0.0000
  33 C33         -5.1329     0.2870     5.2296 C.ar         1    LIG   0.0000
  34 C34         -4.8853     0.8751     3.9935 C.ar         1    LIG   0.0000
  35 C35         -5.2192     2.3471     3.8128 C.3          1    LIG   0.0000
  36 C36         -1.5814     0.0251    -2.3784 C.3          1    LIG   0.0000
  37 H            0.5004     0.3033    -2.0237 H            1    LIG   0.0000
  38 H            1.2662     3.1256    -4.0797 H            1    LIG   0.0000
  39 H            1.2349     2.1090    -2.8021 H            1    LIG   0.0000
  40 H            2.1726     1.7673    -4.0947 H            1    LIG   0.0000
  41 H           -0.7143     1.8046    -4.1356 H            1    LIG   0.0000
  42 H            0.2234     1.4629    -5.4282 H            1    LIG   0.0000
  43 H           -0.6105    -2.1916    -3.1169 H            1    LIG   0.0000
  44 H            0.4264    -2.0729    -1.8609 H            1    LIG   0.0000
  45 H           -2.8467    -2.2334    -2.4128 H            1    LIG   0.0000
  46 H           -1.8133    -0.4468     0.4795 H            1    LIG   0.0000
  47 H           -0.7943    -1.7223     0.4424 H            1    LIG   0.0000
  48 H            0.6520    -2.3546     1.4280 H            1    LIG   0.0000
  49 H            1.5105    -4.5929     1.4141 H            1    LIG   0.0000
  50 H            3.2918    -5.1769    -0.0775 H            1    LIG   0.0000
  51 H            4.8028    -4.6339    -1.7242 H            1    LIG   0.0000
  52 H            4.2936    -3.5192    -2.8035 H            1    LIG   0.0000
  53 H            5.3854    -3.1096    -1.6603 H            1    LIG   0.0000
  54 H           -1.9172     4.0681     0.0703 H            1    LIG   0.0000
  55 H           -0.5014     3.9461     0.8750 H            1    LIG   0.0000
  56 H           -0.5128     3.9746    -0.7577 H            1    LIG   0.0000
  57 H           -2.3909     0.6907    -0.4567 H            1    LIG   0.0000
  58 H           -3.0971     2.1628    -0.4262 H            1    LIG   0.0000
  59 H           -4.8101     0.7342     1.0072 H            1    LIG   0.0000
  60 H           -3.3118    -2.9788     2.3290 H            1    LIG   0.0000
  61 H           -4.0920    -2.0432     1.2416 H            1    LIG   0.0000
  62 H           -2.5877    -1.6417     1.7338 H            1    LIG   0.0000
  63 H           -4.0803    -2.7864     4.5202 H            1    LIG   0.0000
  64 H           -5.4866    -1.0319     7.3852 H            1    LIG   0.0000
  65 H           -5.7481    -2.4627     6.6428 H            1    LIG   0.0000
  66 H           -4.2438    -2.0614     7.1354 H            1    LIG   0.0000
  67 H           -5.5214     0.8248     5.9777 H            1    LIG   0.0000
  68 H           -5.5952     2.7106     4.6651 H            1    LIG   0.0000
  69 H           -4.3888     2.8503     3.5735 H            1    LIG   0.0000
  70 H           -5.8931     2.4487     3.0811 H            1    LIG   0.0000
  71 H           -1.8124     0.8900    -1.9329 H            1    LIG   0.0000
  72 H           -2.1825    -0.1157    -3.1650 H            1    LIG   0.0000
@<TRIPOS>BOND
   1        1        2 1
   2        2        3 1
   3        3        4 1
   4        4        5 1
   5        5        6 1
   6        6        7 1
   7        6        8 1
   8        8        9 1
   9        9       10 1
  10       10       11 1
  11       11       12 ar
  12       12       13 ar
  13       13       14 ar
  14       14       15 ar
  15       15       16 1
  16       15       17 ar
  17       17       11 ar
  18       10       18 2
  19       18       19 1
  20       19       20 2
  21       20        9 1
  22       20       21 1
  23       21       22 1
  24       21       23 1
  25       23       24 1
  26       24       25 2
  27       24       26 am
  28       26       27 1
  29       27       28 ar
  30       28       29 1
  31       28       30 ar
  32       30       31 ar
  33       31       32 1
  34       31       33 ar
  35       33       34 ar
  36       34       27 ar
  37       34       35 1
  38        6       36 1
  39       36        4 1
  40        4       37 1
  41        1       38 1
  42        1       39 1
  43        1       40 1
  44        2       41 1
  45        2       42 1
  46        5       43 1
  47        5       44 1
  48        7       45 1
  49        8       46 1
  50        8       47 1
  51       12       48 1
  52       13       49 1
  53       14       50 1
  54       16       51 1
  55       16       52 1
  56       16       53 1
  57       22       54 1
  58       22       55 1
  59       22       56 1
  60       23       57 1
  61       23       58 1
  62       26       59 1
  63       29       60 1
  64       29       61 1
  65       29       62 1
  66       30       63 1
  67       32       64 1
  68       32       65 1
  69       32       66 1
  70       33       67 1
  71       35       68 1
  72       35       69 1
  73       35       70 1
  74       36       71 1
  75       36       72 1

@<TRIPOS>MOLECULE

  72   75
SMALL
USER_CHARGES
@<TRIPOS>ATOM
   1 C1           2.1247    -1.6587    -5.6724 C.3          1    LIG   0.0000
   2 C2           1.7469    -1.6903    -4.2005 C.3          1    LIG   0.0000
   3 O3           0.6368    -0.8332    -3.9783 O.3          1    LIG   0.0000
   4 C4           0.2013    -0.7899    -2.6258 C.3          1    LIG   0.0000
   5 C5          -0.5004    -2.0580    -2.2025 C.3          1    LIG   0.0000
   6 C6          -1.4690    -1.1611    -1.4439 C.3          1    LIG   0.0000
   7 O7          -2.8102    -1.6460    -1.4819 O.3          1    LIG   0.0000
   8 C8          -1.0507    -0.8686    -0.0109 C.3          1    LIG   0.0000
   9 N9           0.0969     0.0481    -0.0133 N.pl3        1    LIG   0.0000
  10 C10          1.4071    -0.3124    -0.0293 C.2          1    LIG   0.0000
  11 C11          1.9417    -1.6619    -0.0557 C.ar         1    LIG   0.0000
  12 C12          2.1637    -2.2607    -1.2921 C.ar         1    LIG   0.0000
  13 C13          2.6744    -3.5542    -1.3383 C.ar         1    LIG   0.0000
  14 C14          2.9564    -4.2325    -0.1588 C.ar         1    LIG   0.0000
  15 C15          2.7231    -3.6012     1.0597 C.ar         1    LIG   0.0000
  16 C16          3.0378    -4.3610     2.3404 C.3          1    LIG   0.0000
  17 N17          2.2273    -2.3509     1.0646 N.ar         1    LIG   0.0000
  18 N18          2.0962     0.7986    -0.0261 N.2          1    LIG   0.0000
  19 N19          1.2800     1.8369     0.0092 N.2          1    LIG   0.0000
  20 C20          0.0401     1.4086     0.0104 C.2          1    LIG   0.0000
  21 N21         -1.1148     2.1984     0.0321 N.pl3        1    LIG   0.0000
  22 C22         -1.0026     3.6639     0.0569 C.3          1    LIG   0.0000
  23 C23         -2.4402     1.5627     0.0303 C.3          1    LIG   0.0000
  24 C24         -2.8871     1.3186     1.4625 C.2          1    LIG   0.0000
  25 O25         -2.1776     1.6400     2.3754 O.2          1    LIG   0.0000
  26 N26         -4.0998     0.7317     1.7110 N.am         1    LIG   0.0000
  27 C27         -4.3447     0.1284     2.9509 C.ar         1    LIG   0.0000
  28 C28         -4.0506    -1.2165     3.1493 C.ar         1    LIG   0.0000
  29 C29         -3.4600    -2.0405     2.0165 C.3          1    LIG   0.0000
  30 C30         -4.2924    -1.8194     4.3795 C.ar         1    LIG   0.0000
  31 C31         -4.8330    -1.0591     5.4112 C.ar         1    LIG   0.0000
  32 C32         -5.1008    -1.7094     6.7589 C.3          1    LIG   0.0000
  33 C33         -5.1329     0.2870     5.2296 C.ar         1    LIG   0.0000
  34 C34         -4.8853     0.8751     3.9935 C.ar         1    LIG   0.0000
  35 C35         -5.2192     2.3471     3.8128 C.3          1    LIG   0.0000
  36 C36         -1.1423    -0.1061    -2.4799 C.3          1    LIG   0.0000
  37 H            0.8961    -0.4708    -1.9813 H            1    LIG   0.0000
  38 H            2.9065    -2.2623    -5.8289 H            1    LIG   0.0000
  39 H            1.3491    -1.9686    -6.2224 H            1    LIG   0.0000
  40 H            2.3671    -0.7246    -5.9344 H            1    LIG   0.0000
  41 H            1.5045    -2.6244    -3.9385 H            1    LIG   0.0000
  42 H            2.5225    -1.3805    -3.6506 H            1    LIG   0.0000
  43 H           -0.9098    -2.5813    -2.9500 H            1    LIG   0.0000
  44 H            0.0449    -2.6684    -1.6280 H            1    LIG   0.0000
  45 H           -3.0702    -1.8334    -2.4291 H            1    LIG   0.0000
  46 H           -1.8133    -0.4468     0.4795 H            1    LIG   0.0000
  47 H           -0.7943    -1.7223     0.4424 H            1    LIG   0.0000
  48 H            1.9587    -1.7673    -2.1373 H            1    LIG   0.0000
  49 H            2.8386    -3.9956    -2.2204 H            1    LIG   0.0000
  50 H            3.3224    -5.1627    -0.1850 H            1    LIG   0.0000
  51 H            3.3946    -5.2667     2.1115 H            1    LIG   0.0000
  52 H            3.7217    -3.8568     2.8676 H            1    LIG   0.0000
  53 H            2.2038    -4.4588     2.8835 H            1    LIG   0.0000
  54 H           -1.9172     4.0681     0.0703 H            1    LIG   0.0000
  55 H           -0.5014     3.9461     0.8750 H            1    LIG   0.0000
  56 H           -0.5128     3.9746    -0.7577 H            1    LIG   0.0000
  57 H           -2.3909     0.6907    -0.4567 H            1    LIG   0.0000
  58 H           -3.0971     2.1628    -0.4262 H            1    LIG   0.0000
  59 H           -4.8101     0.7342     1.0072 H            1    LIG   0.0000
  60 H           -3.3118    -2.9788     2.3290 H            1    LIG   0.0000
  61 H           -4.0920    -2.0432     1.2416 H            1    LIG   0.0000
  62 H           -2.5877    -1.6417     1.7338 H            1    LIG   0.0000
  63 H           -4.0803    -2.7864     4.5202 H            1    LIG   0.0000
  64 H           -5.4866    -1.0319     7.3852 H            1    LIG   0.0000
  65 H           -5.7481    -2.4627     6.6428 H            1    LIG   0.0000
  66 H           -4.2438    -2.0614     7.1354 H            1    LIG   0.0000
  67 H           -5.5214     0.8248     5.9777 H            1    LIG   0.0000
  68 H           -5.5952     2.7106     4.6651 H            1    LIG   0.0000
  69 H           -4.3888     2.8503     3.5735 H            1    LIG   0.0000
  70 H           -5.8931     2.4487     3.0811 H            1    LIG   0.0000
  71 H           -1.1013     0.8291    -2.1281 H            1    LIG   0.0000
  72 H           -1.7163    -0.1296    -3.2983 H            1    LIG   0.0000
@<TRIPOS>BOND
   1        1        2 1
   2        2        3 1
   3        3        4 1
   4        4        5 1
   5        5        6 1
   6        6        7 1
   7        6        8 1
   8        8        9 1
   9        9       10 1
  10       10       11 1
  11       11       12 ar
  12       12       13 ar
  13       13       14 ar
  14       14       15 ar
  15       15       16 1
  16       15       17 ar
  17       17       11 ar
  18       10       18 2
  19       18       19 1
  20       19       20 2
  21       20        9 1
  22       20       21 1
  23       21       22 1
  24       21       23 1
  25       23       24 1
  26       24       25 2
  27       24       26 am
  28       26       27 1
  29       27       28 ar
  30       28       29 1
  31       28       30 ar
  32       30       31 ar
  33       31       32 1
  34       31       33 ar
  35       33       34 ar
  36       34       27 ar
  37       34       35 1
  38        6       36 1
  39       36        4 1
  40        4       37 1
  41        1       38 1
  42        1       39 1
  43        1       40 1
  44        2       41 1
  45        2       42 1
  46        5       43 1
  47        5       44 1
  48        7       45 1
  49        8       46 1
  50        8       47 1
  51       12       48 1
  52       13       49 1
  53       14       50 1
  54       16       51 1
  55       16       52 1
  56       16       53 1
  57       22       54 1
  58       22       55 1
  59       22       56 1
  60       23       57 1
  61       23       58 1
  62       26       59 1
  63       29       60 1
  64       29       61 1
  65       29       62 1
  66       30       63 1
  67       32       64 1
  68       32       65 1
  69       32       66 1
  70       33       67 1
  71       35       68 1
  72       35       69 1
  73       35       70 1
  74       36       71 1
  75       36       72 1

@<TRIPOS>MOLECULE

  72   75
SMALL
USER_CHARGES
@<TRIPOS>ATOM
   1 C1          -4.2428    -5.7427    -2.9798 C.3          1    LIG   0.0000
   2 C2          -3.7981    -4.6999    -1.9673 C.3          1    LIG   0.0000
   3 O3          -2.5524    -4.1500    -2.3702 O.3          1    LIG   0.0000
   4 C4          -2.0449    -3.1590    -1.4864 C.3          1    LIG   0.0000
   5 C5          -2.8148    -1.8626    -1.5667 C.3          1    LIG   0.0000
   6 C6          -1.4690    -1.1611    -1.4439 C.3          1    LIG   0.0000
   7 O7          -1.3931     0.0228    -2.2363 O.3          1    LIG   0.0000
   8 C8          -1.0507    -0.8686    -0.0109 C.3          1    LIG   0.0000
   9 N9           0.0969     0.0481    -0.0133 N.pl3        1    LIG   0.0000
  10 C10          1.4071    -0.3124    -0.0293 C.2          1    LIG   0.0000
  11 C11          1.9417    -1.6619    -0.0557 C.ar         1    LIG   0.0000
  12 C12          1.3951    -2.6063     0.8079 C.ar         1    LIG   0.0000
  13 C13          1.8947    -3.9049     0.7984 C.ar         1    LIG   0.0000
  14 C14          2.9274    -4.2458    -0.0665 C.ar         1    LIG   0.0000
  15 C15          3.4484    -3.2752    -0.9175 C.ar         1    LIG   0.0000
  16 C16          4.5795    -3.6682    -1.8569 C.3          1    LIG   0.0000
  17 N17          2.9408    -2.0302    -0.8788 N.ar         1    LIG   0.0000
  18 N18          2.0962     0.7986    -0.0261 N.2          1    LIG   0.0000
  19 N19          1.2800     1.8369     0.0092 N.2          1    LIG   0.0000
  20 C20          0.0401     1.4086     0.0104 C.2          1    LIG   0.0000
  21 N21         -1.1148     2.1984     0.0321 N.pl3        1    LIG   0.0000
  22 C22         -1.0026     3.6639     0.0569 C.3          1    LIG   0.0000
  23 C23         -2.4402     1.5627     0.0303 C.3          1    LIG   0.0000
  24 C24         -2.8871     1.3186     1.4625 C.2          1    LIG   0.0000
  25 O25         -2.1776     1.6400     2.3754 O.2          1    LIG   0.0000
  26 N26         -4.0998     0.7317     1.7110 N.am         1    LIG   0.0000
  27 C27         -4.3447     0.1284     2.9509 C.ar         1    LIG   0.0000
  28 C28         -4.0506    -1.2165     3.1493 C.ar         1    LIG   0.0000
  29 C29         -3.4600    -2.0405     2.0165 C.3          1    LIG   0.0000
  30 C30         -4.2924    -1.8194     4.3795 C.ar         1    LIG   0.0000
  31 C31         -4.8330    -1.0591     5.4112 C.ar         1    LIG   0.0000
  32 C32         -5.1008    -1.7094     6.7589 C.3          1    LIG   0.0000
  33 C33         -5.1329     0.2870     5.2296 C.ar         1    LIG   0.0000
  34 C34         -4.8853     0.8751     3.9935 C.ar         1    LIG   0.0000
  35 C35         -5.2192     2.3471     3.8128 C.3          1    LIG   0.0000
  36 C36         -0.8811    -2.3990    -2.0881 C.3          1    LIG   0.0000
  37 H           -1.8847    -3.4839    -0.5544 H            1    LIG   0.0000
  38 H           -5.1201    -6.1299    -2.6961 H            1    LIG   0.0000
  39 H           -4.3425    -5.3141    -3.8778 H            1    LIG   0.0000
  40 H           -3.5585    -6.4700    -3.0317 H            1    LIG   0.0000
  41 H           -4.4824    -3.9725    -1.9154 H            1    LIG   0.0000
  42 H           -3.6984    -5.1285    -1.0693 H            1    LIG   0.0000
  43 H           -3.2909    -1.7096    -2.4327 H            1    LIG   0.0000
  44 H           -3.4443    -1.7000    -0.8069 H            1    LIG   0.0000
  45 H           -1.6708    -0.1854    -3.1741 H            1    LIG   0.0000
  46 H           -1.8133    -0.4468     0.4795 H            1    LIG   0.0000
  47 H           -0.7943    -1.7223     0.4424 H            1    LIG   0.0000
  48 H            0.6520    -2.3546     1.4280 H            1    LIG   0.0000
  49 H            1.5105    -4.5929     1.4141 H            1    LIG   0.0000
  50 H            3.2918    -5.1769    -0.0775 H            1    LIG   0.0000
  51 H            4.8028    -4.6339    -1.7242 H            1    LIG   0.0000
  52 H            4.2936    -3.5192    -2.8035 H            1    LIG   0.0000
  53 H            5.3854    -3.1096    -1.6603 H            1    LIG   0.0000
  54 H           -1.9172     4.0681     0.0703 H            1    LIG   0.0000
  55 H           -0.5014     3.9461     0.8750 H            1    LIG   0.0000
  56 H           -0.5128     3.9746    -0.7577 H            1    LIG   0.0000
  57 H           -2.3909     0.6907    -0.4567 H            1    LIG   0.0000
  58 H           -3.0971     2.1628    -0.4262 H            1    LIG   0.0000
  59 H           -4.8101     0.7342     1.0072 H            1    LIG   0.0000
  60 H           -3.3118    -2.9788     2.3290 H            1    LIG   0.0000
  61 H           -4.0920    -2.0432     1.2416 H            1    LIG   0.0000
  62 H           -2.5877    -1.6417     1.7338 H            1    LIG   0.0000
  63 H           -4.0803    -2.7864     4.5202 H            1    LIG   0.0000
  64 H           -5.4866    -1.0319     7.3852 H            1    LIG   0.0000
  65 H           -5.7481    -2.4627     6.6428 H            1    LIG   0.0000
  66 H           -4.2438    -2.0614     7.1354 H            1    LIG   0.0000
  67 H           -5.5214     0.8248     5.9777 H            1    LIG   0.0000
  68 H           -5.5952     2.7106     4.6651 H            1    LIG   0.0000
  69 H           -4.3888     2.8503     3.5735 H            1    LIG   0.0000
  70 H           -5.8931     2.4487     3.0811 H            1    LIG   0.0000
  71 H            0.0183    -2.6655    -1.7417 H            1    LIG   0.0000
  72 H           -0.8620    -2.3831    -3.0878 H            1    LIG   0.0000
@<TRIPOS>BOND
   1        1        2 1
   2        2        3 1
   3        3        4 1
   4        4        5 1
   5        5        6 1
   6        6        7 1
   7        6        8 1
   8        8        9 1
   9        9       10 1
  10       10       11 1
  11       11       12 ar
  12       12       13 ar
  13       13       14 ar
  14       14       15 ar
  15       15       16 1
  16       15       17 ar
  17       17       11 ar
  18       10       18 2
  19       18       19 1
  20       19       20 2
  21       20        9 1
  22       20       21 1
  23       21       22 1
  24       21       23 1
  25       23       24 1
  26       24       25 2
  27       24       26 am
  28       26       27 1
  29       27       28 ar
  30       28       29 1
  31       28       30 ar
  32       30       31 ar
  33       31       32 1
  34       31       33 ar
  35       33       34 ar
  36       34       27 ar
  37       34       35 1
  38        6       36 1
  39       36        4 1
  40        4       37 1
  41        1       38 1
  42        1       39 1
  43        1       40 1
  44        2       41 1
  45        2       42 1
  46        5       43 1
  47        5       44 1
  48        7       45 1
  49        8       46 1
  50        8       47 1
  51       12       48 1
  52       13       49 1
  53       14       50 1
  54       16       51 1
  55       16       52 1
  56       16       53 1
  57       22       54 1
  58       22       55 1
  59       22       56 1
  60       23       57 1
  61       23       58 1
  62       26       59 1
  63       29       60 1
  64       29       61 1
  65       29       62 1
  66       30       63 1
  67       32       64 1
  68       32       65 1
  69       32       66 1
  70       33       67 1
  71       35       68 1
  72       35       69 1
  73       35       70 1
  74       36       71 1
  75       36       72 1

@<TRIPOS>MOLECULE

  72   75
SMALL
USER_CHARGES
@<TRIPOS>ATOM
   1 C1          -2.0325    -5.1208     0.8232 C.3          1    LIG   0.0000
   2 C2          -1.3781    -4.2576    -0.2431 C.3          1    LIG   0.0000
   3 O3          -2.1737    -4.2736    -1.4191 O.3          1    LIG   0.0000
   4 C4          -2.0907    -3.0831    -2.1888 C.3          1    LIG   0.0000
   5 C5          -2.8007    -1.8889    -1.5653 C.3          1    LIG   0.0000
   6 C6          -1.4687    -1.1609    -1.4427 C.3          1    LIG   0.0000
   7 O7          -1.3857     0.0295    -2.2124 O.3          1    LIG   0.0000
   8 C8          -1.0507    -0.8686    -0.0109 C.3          1    LIG   0.0000
   9 N9           0.0969     0.0481    -0.0133 N.pl3        1    LIG   0.0000
  10 C10          1.4071    -0.3124    -0.0293 C.2          1    LIG   0.0000
  11 C11          1.9417    -1.6619    -0.0557 C.ar         1    LIG   0.0000
  12 C12          2.7358    -2.0372    -1.1351 C.ar         1    LIG   0.0000
  13 C13          3.2564    -3.3268    -1.1792 C.ar         1    LIG   0.0000
  14 C14          2.9813    -4.2227    -0.1533 C.ar         1    LIG   0.0000
  15 C15          2.1844    -3.8116     0.9114 C.ar         1    LIG   0.0000
  16 C16          1.8942    -4.8078     2.0249 C.3          1    LIG   0.0000
  17 N17          1.6978    -2.5577     0.9186 N.ar         1    LIG   0.0000
  18 N18          2.0962     0.7986    -0.0261 N.2          1    LIG   0.0000
  19 N19          1.2800     1.8369     0.0092 N.2          1    LIG   0.0000
  20 C20          0.0401     1.4086     0.0104 C.2          1    LIG   0.0000
  21 N21         -1.1148     2.1984     0.0321 N.pl3        1    LIG   0.0000
  22 C22         -1.0026     3.6639     0.0569 C.3          1    LIG   0.0000
  23 C23         -2.4402     1.5627     0.0303 C.3          1    LIG   0.0000
  24 C24         -2.8871     1.3186     1.4625 C.2          1    LIG   0.0000
  25 O25         -2.1776     1.6400     2.3754 O.2          1    LIG   0.0000
  26 N26         -4.0998     0.7317     1.7110 N.am         1    LIG   0.0000
  27 C27         -4.3447     0.1284     2.9509 C.ar         1    LIG   0.0000
  28 C28         -4.0506    -1.2165     3.1493 C.ar         1    LIG   0.0000
  29 C29         -3.4600    -2.0405     2.0165 C.3          1    LIG   0.0000
  30 C30         -4.2924    -1.8194     4.3795 C.ar         1    LIG   0.0000
  31 C31         -4.8330    -1.0591     5.4112 C.ar         1    LIG   0.0000
  32 C32         -5.1008    -1.7094     6.7589 C.3          1    LIG   0.0000
  33 C33         -5.1329     0.2870     5.2296 C.ar         1    LIG   0.0000
  34 C34         -4.8853     0.8751     3.9935 C.ar         1    LIG   0.0000
  35 C35         -5.2192     2.3471     3.8128 C.3          1    LIG   0.0000
  36 C36         -0.7587    -2.3551    -2.0663 C.3          1    LIG   0.0000
  37 H           -2.3576    -3.2281    -3.1416 H            1    LIG   0.0000
  38 H           -1.4722    -5.1096     1.6514 H            1    LIG   0.0000
  39 H           -2.9421    -4.7612     1.0312 H            1    LIG   0.0000
  40 H           -2.1138    -6.0596     0.4884 H            1    LIG   0.0000
  41 H           -1.2968    -3.3188     0.0917 H            1    LIG   0.0000
  42 H           -0.4684    -4.6172    -0.4511 H            1    LIG   0.0000
  43 H           -3.4564    -1.4408    -2.1730 H            1    LIG   0.0000
  44 H           -3.2398    -2.0869    -0.6889 H            1    LIG   0.0000
  45 H           -1.6608    -0.1627    -3.1544 H            1    LIG   0.0000
  46 H           -1.8133    -0.4468     0.4795 H            1    LIG   0.0000
  47 H           -0.7943    -1.7223     0.4424 H            1    LIG   0.0000
  48 H            2.9299    -1.3878    -1.8703 H            1    LIG   0.0000
  49 H            3.8286    -3.6089    -1.9493 H            1    LIG   0.0000
  50 H            3.3513    -5.1514    -0.1795 H            1    LIG   0.0000
  51 H            2.3495    -5.6750     1.8234 H            1    LIG   0.0000
  52 H            2.2349    -4.4462     2.8928 H            1    LIG   0.0000
  53 H            0.9075    -4.9567     2.0902 H            1    LIG   0.0000
  54 H           -1.9172     4.0681     0.0703 H            1    LIG   0.0000
  55 H           -0.5014     3.9461     0.8750 H            1    LIG   0.0000
  56 H           -0.5128     3.9746    -0.7577 H            1    LIG   0.0000
  57 H           -2.3909     0.6907    -0.4567 H            1    LIG   0.0000
  58 H           -3.0971     2.1628    -0.4262 H            1    LIG   0.0000
  59 H           -4.8101     0.7342     1.0072 H            1    LIG   0.0000
  60 H           -3.3118    -2.9788     2.3290 H            1    LIG   0.0000
  61 H           -4.0920    -2.0432     1.2416 H            1    LIG   0.0000
  62 H           -2.5877    -1.6417     1.7338 H            1    LIG   0.0000
  63 H           -4.0803    -2.7864     4.5202 H            1    LIG   0.0000
  64 H           -5.4866    -1.0319     7.3852 H            1    LIG   0.0000
  65 H           -5.7481    -2.4627     6.6428 H            1    LIG   0.0000
  66 H           -4.2438    -2.0614     7.1354 H            1    LIG   0.0000
  67 H           -5.5214     0.8248     5.9777 H            1    LIG   0.0000
  68 H           -5.5952     2.7106     4.6651 H            1    LIG   0.0000
  69 H           -4.3888     2.8503     3.5735 H            1    LIG   0.0000
  70 H           -5.8931     2.4487     3.0811 H            1    LIG   0.0000
  71 H           -0.1030    -2.8032    -1.4586 H            1    LIG   0.0000
  72 H           -0.3196    -2.1571    -2.9426 H            1    LIG   0.0000
@<TRIPOS>BOND
   1        1        2 1
   2        2        3 1
   3        3        4 1
   4        4        5 1
   5        5        6 1
   6        6        7 1
   7        6        8 1
   8        8        9 1
   9        9       10 1
  10       10       11 1
  11       11       12 ar
  12       12       13 ar
  13       13       14 ar
  14       14       15 ar
  15       15       16 1
  16       15       17 ar
  17       17       11 ar
  18       10       18 2
  19       18       19 1
  20       19       20 2
  21       20        9 1
  22       20       21 1
  23       21       22 1
  24       21       23 1
  25       23       24 1
  26       24       25 2
  27       24       26 am
  28       26       27 1
  29       27       28 ar
  30       28       29 1
  31       28       30 ar
  32       30       31 ar
  33       31       32 1
  34       31       33 ar
  35       33       34 ar
  36       34       27 ar
  37       34       35 1
  38        6       36 1
  39       36        4 1
  40        4       37 1
  41        1       38 1
  42        1       39 1
  43        1       40 1
  44        2       41 1
  45        2       42 1
  46        5       43 1
  47        5       44 1
  48        7       45 1
  49        8       46 1
  50        8       47 1
  51       12       48 1
  52       13       49 1
  53       14       50 1
  54       16       51 1
  55       16       52 1
  56       16       53 1
  57       22       54 1
  58       22       55 1
  59       22       56 1
  60       23       57 1
  61       23       58 1
  62       26       59 1
  63       29       60 1
  64       29       61 1
  65       29       62 1
  66       30       63 1
  67       32       64 1
  68       32       65 1
  69       32       66 1
  70       33       67 1
  71       35       68 1
  72       35       69 1
  73       35       70 1
  74       36       71 1
  75       36       72 1

