@<TRIPOS>MOLECULE
*****
 72 75 0 0 0
SMALL
USER_CHARGES

@<TRIPOS>ATOM
      1 C1         -6.1632    1.7130   -1.6589 C.3     1  LIG1        0.0000
      2 C2         -5.3361    0.6144   -2.3065 C.3     1  LIG1        0.0000
      3 O3         -3.9772    0.7541   -1.9187 O.3     1  LIG1        0.0000
      4 C4         -3.1147   -0.2286   -2.4725 C.3     1  LIG1        0.0000
      5 C5         -1.6327    0.0813   -2.3084 C.3     1  LIG1        0.0000
      6 C6         -1.4687   -1.1609   -1.4427 C.3     1  LIG1        0.0000
      7 O7         -0.6062   -2.1436   -1.9965 O.3     1  LIG1        0.0000
      8 C8         -1.0507   -0.8686   -0.0109 C.3     1  LIG1        0.0000
      9 N9          0.0969    0.0481   -0.0133 N.pl3   1  LIG1        0.0000
     10 C10         1.4071   -0.3124   -0.0293 C.2     1  LIG1        0.0000
     11 C11         1.9417   -1.6619   -0.0557 C.3     1  LIG1        0.0000
     12 C12         1.3951   -2.6063    0.8079 C.3     1  LIG1        0.0000
     13 C13         1.8947   -3.9049    0.7984 C.3     1  LIG1        0.0000
     14 C14         2.9274   -4.2458   -0.0665 C.3     1  LIG1        0.0000
     15 C15         3.4484   -3.2752   -0.9175 C.3     1  LIG1        0.0000
     16 C16         4.5795   -3.6682   -1.8569 C.3     1  LIG1        0.0000
     17 N17         2.9408   -2.0302   -0.8788 N.pl3   1  LIG1        0.0000
     18 N18         2.0962    0.7986   -0.0261 N.2     1  LIG1        0.0000
     19 N19         1.2800    1.8369    0.0092 N.2     1  LIG1        0.0000
     20 C20         0.0401    1.4086    0.0104 C.cat   1  LIG1        0.0000
     21 N21        -1.1148    2.1984    0.0321 N.pl3   1  LIG1        0.0000
     22 C22        -1.0026    3.6639    0.0569 C.3     1  LIG1        0.0000
     23 C23        -2.4402    1.5627    0.0303 C.3     1  LIG1        0.0000
     24 C24        -2.8871    1.3186    1.4625 C.2     1  LIG1        0.0000
     25 O25        -2.1776    1.6400    2.3754 O.2     1  LIG1        0.0000
     26 N26        -4.0998    0.7317    1.7110 N.am    1  LIG1        0.0000
     27 C27        -4.7034    0.8763    2.9664 C.3     1  LIG1        0.0000
     28 C28        -4.0597    0.4232    4.1131 C.3     1  LIG1        0.0000
     29 C29        -2.6927   -0.2337    4.0080 C.3     1  LIG1        0.0000
     30 C30        -4.6560    0.5650    5.3619 C.3     1  LIG1        0.0000
     31 C31        -5.9069    1.1669    5.4501 C.3     1  LIG1        0.0000
     32 C32        -6.5664    1.3261    6.8105 C.3     1  LIG1        0.0000
     33 C33        -6.5644    1.6255    4.3133 C.3     1  LIG1        0.0000
     34 C34        -5.9547    1.4762    3.0719 C.3     1  LIG1        0.0000
     35 C35        -6.6877    1.9831    1.8404 C.3     1  LIG1        0.0000
     36 C36        -2.9507   -1.4708   -1.6068 C.3     1  LIG1        0.0000
     37 H          -3.3529   -0.4535   -3.4173 H       1  LIG1        0.0000
     38 H          -7.1202    1.6146   -1.9320 H       1  LIG1        0.0000
     39 H          -6.0915    1.6418   -0.6640 H       1  LIG1        0.0000
     40 H          -5.8222    2.6053   -1.9547 H       1  LIG1        0.0000
     41 H          -5.6771   -0.2779   -2.0107 H       1  LIG1        0.0000
     42 H          -5.4079    0.6856   -3.3014 H       1  LIG1        0.0000
     43 H          -1.1132    0.0552   -3.1625 H       1  LIG1        0.0000
     44 H          -1.4456    0.9395   -1.8305 H       1  LIG1        0.0000
     45 H          -0.8812   -2.3359   -2.9385 H       1  LIG1        0.0000
     46 H          -1.8133   -0.4468    0.4795 H       1  LIG1        0.0000
     47 H          -0.7943   -1.7223    0.4424 H       1  LIG1        0.0000
     48 H           0.6520   -2.3546    1.4280 H       1  LIG1        0.0000
     49 H           1.5105   -4.5929    1.4141 H       1  LIG1        0.0000
     50 H           3.2918   -5.1769   -0.0775 H       1  LIG1        0.0000
     51 H           4.8028   -4.6339   -1.7242 H       1  LIG1        0.0000
     52 H           4.2936   -3.5192   -2.8035 H       1  LIG1        0.0000
     53 H           5.3854   -3.1096   -1.6603 H       1  LIG1        0.0000
     54 H          -1.9172    4.0681    0.0703 H       1  LIG1        0.0000
     55 H          -0.5014    3.9461    0.8750 H       1  LIG1        0.0000
     56 H          -0.5128    3.9746   -0.7577 H       1  LIG1        0.0000
     57 H          -2.3909    0.6907   -0.4567 H       1  LIG1        0.0000
     58 H          -3.0971    2.1628   -0.4262 H       1  LIG1        0.0000
     59 H          -4.5539    0.2001    0.9961 H       1  LIG1        0.0000
     60 H          -2.3785   -0.4972    4.9201 H       1  LIG1        0.0000
     61 H          -2.7573   -1.0470    3.4299 H       1  LIG1        0.0000
     62 H          -2.0432    0.4110    3.6051 H       1  LIG1        0.0000
     63 H          -4.1916    0.2387    6.1851 H       1  LIG1        0.0000
     64 H          -7.4538    1.7739    6.7004 H       1  LIG1        0.0000
     65 H          -6.6967    0.4255    7.2252 H       1  LIG1        0.0000
     66 H          -5.9827    1.8836    7.4008 H       1  LIG1        0.0000
     67 H          -7.4635    2.0569    4.3875 H       1  LIG1        0.0000
     68 H          -7.5642    2.3794    2.1137 H       1  LIG1        0.0000
     69 H          -6.1335    2.6808    1.3863 H       1  LIG1        0.0000
     70 H          -6.8475    1.2226    1.2110 H       1  LIG1        0.0000
     71 H          -3.4702   -1.4447   -0.7527 H       1  LIG1        0.0000
     72 H          -3.1378   -2.3291   -2.0847 H       1  LIG1        0.0000
@<TRIPOS>BOND
     1     1     2    1
     2     2     3    1
     3     3     4    1
     4     4     5    1
     5     5     6    1
     6     6     7    1
     7     6     8    1
     8     8     9    1
     9     9    10    1
    10    10    11    1
    11    11    12   ar
    12    12    13   ar
    13    13    14   ar
    14    14    15   ar
    15    15    16    1
    16    15    17   ar
    17    17    11   ar
    18    10    18    2
    19    18    19    1
    20    19    20    2
    21    20     9    1
    22    20    21    1
    23    21    22    1
    24    21    23    1
    25    23    24    1
    26    24    25    2
    27    24    26   am
    28    26    27    1
    29    27    28   ar
    30    28    29    1
    31    28    30   ar
    32    30    31   ar
    33    31    32    1
    34    31    33   ar
    35    33    34   ar
    36    34    27   ar
    37    34    35    1
    38     6    36    1
    39    36     4    1
    40     4    37    1
    41     1    38    1
    42     1    39    1
    43     1    40    1
    44     2    41    1
    45     2    42    1
    46     5    43    1
    47     5    44    1
    48     7    45    1
    49     8    46    1
    50     8    47    1
    51    12    48    1
    52    13    49    1
    53    14    50    1
    54    16    51    1
    55    16    52    1
    56    16    53    1
    57    22    54    1
    58    22    55    1
    59    22    56    1
    60    23    57    1
    61    23    58    1
    62    26    59    1
    63    29    60    1
    64    29    61    1
    65    29    62    1
    66    30    63    1
    67    32    64    1
    68    32    65    1
    69    32    66    1
    70    33    67    1
    71    35    68    1
    72    35    69    1
    73    35    70    1
    74    36    71    1
    75    36    72    1
