@<TRIPOS>MOLECULE
*****
 72 75 0 0 0
SMALL
USER_CHARGES

@<TRIPOS>ATOM
      1 C1         -4.4939   -5.4348   -2.6780 C.3     1  LIG1        0.0000
      2 C2         -3.3462   -5.1062   -1.7371 C.3     1  LIG1        0.0000
      3 O3         -2.4796   -4.1676   -2.3573 O.3     1  LIG1        0.0000
      4 C4         -1.9899   -3.1620   -1.4768 C.3     1  LIG1        0.0000
      5 C5         -0.8551   -2.3793   -2.0973 C.3     1  LIG1        0.0000
      6 C6         -1.4698   -1.1616   -1.4465 C.3     1  LIG1        0.0000
      7 O7         -1.4061   -0.0050   -2.2634 O.3     1  LIG1        0.0000
      8 C8         -1.0507   -0.8686   -0.0109 C.3     1  LIG1        0.0000
      9 N9          0.0969    0.0481   -0.0133 N.pl3   1  LIG1        0.0000
     10 C10         1.4071   -0.3124   -0.0293 C.2     1  LIG1        0.0000
     11 C11         1.9417   -1.6619   -0.0557 C.3     1  LIG1        0.0000
     12 C12         2.1637   -2.2607   -1.2921 C.3     1  LIG1        0.0000
     13 C13         2.6744   -3.5542   -1.3383 C.3     1  LIG1        0.0000
     14 C14         2.9564   -4.2325   -0.1588 C.3     1  LIG1        0.0000
     15 C15         2.7231   -3.6012    1.0597 C.3     1  LIG1        0.0000
     16 C16         3.0378   -4.3610    2.3404 C.3     1  LIG1        0.0000
     17 N17         2.2273   -2.3509    1.0646 N.pl3   1  LIG1        0.0000
     18 N18         2.0962    0.7986   -0.0261 N.2     1  LIG1        0.0000
     19 N19         1.2800    1.8369    0.0092 N.2     1  LIG1        0.0000
     20 C20         0.0401    1.4086    0.0104 C.cat   1  LIG1        0.0000
     21 N21        -1.1148    2.1984    0.0321 N.pl3   1  LIG1        0.0000
     22 C22        -1.0026    3.6639    0.0569 C.3     1  LIG1        0.0000
     23 C23        -2.4402    1.5627    0.0303 C.3     1  LIG1        0.0000
     24 C24        -2.8871    1.3186    1.4625 C.2     1  LIG1        0.0000
     25 O25        -2.1776    1.6400    2.3754 O.2     1  LIG1        0.0000
     26 N26        -4.0998    0.7317    1.7110 N.am    1  LIG1        0.0000
     27 C27        -4.5115    0.5068    3.0306 C.3     1  LIG1        0.0000
     28 C28        -4.7804   -0.7839    3.4735 C.3     1  LIG1        0.0000
     29 C29        -4.6281   -1.9607    2.5232 C.3     1  LIG1        0.0000
     30 C30        -5.1895   -1.0113    4.7835 C.3     1  LIG1        0.0000
     31 C31        -5.3267    0.0703    5.6471 C.3     1  LIG1        0.0000
     32 C32        -5.7734   -0.1685    7.0805 C.3     1  LIG1        0.0000
     33 C33        -5.0619    1.3675    5.2204 C.3     1  LIG1        0.0000
     34 C34        -4.6537    1.5782    3.9073 C.3     1  LIG1        0.0000
     35 C35        -4.3687    3.0023    3.4581 C.3     1  LIG1        0.0000
     36 C36        -2.7861   -1.8834   -1.5802 C.3     1  LIG1        0.0000
     37 H          -1.8198   -3.4730   -0.5417 H       1  LIG1        0.0000
     38 H          -5.1042   -6.0957   -2.2413 H       1  LIG1        0.0000
     39 H          -5.0023   -4.5997   -2.8880 H       1  LIG1        0.0000
     40 H          -4.1302   -5.8252   -3.5238 H       1  LIG1        0.0000
     41 H          -3.7099   -4.7158   -0.8914 H       1  LIG1        0.0000
     42 H          -2.8378   -5.9412   -1.5271 H       1  LIG1        0.0000
     43 H           0.0558   -2.6211   -1.7629 H       1  LIG1        0.0000
     44 H          -0.8502   -2.3654   -3.0972 H       1  LIG1        0.0000
     45 H          -1.6878   -0.2384   -3.1941 H       1  LIG1        0.0000
     46 H          -1.8133   -0.4468    0.4795 H       1  LIG1        0.0000
     47 H          -0.7943   -1.7223    0.4424 H       1  LIG1        0.0000
     48 H           1.9587   -1.7673   -2.1373 H       1  LIG1        0.0000
     49 H           2.8386   -3.9956   -2.2204 H       1  LIG1        0.0000
     50 H           3.3224   -5.1627   -0.1850 H       1  LIG1        0.0000
     51 H           3.3946   -5.2667    2.1115 H       1  LIG1        0.0000
     52 H           3.7217   -3.8568    2.8676 H       1  LIG1        0.0000
     53 H           2.2038   -4.4588    2.8835 H       1  LIG1        0.0000
     54 H          -1.9172    4.0681    0.0703 H       1  LIG1        0.0000
     55 H          -0.5014    3.9461    0.8750 H       1  LIG1        0.0000
     56 H          -0.5128    3.9746   -0.7577 H       1  LIG1        0.0000
     57 H          -2.3909    0.6907   -0.4567 H       1  LIG1        0.0000
     58 H          -3.0971    2.1628   -0.4262 H       1  LIG1        0.0000
     59 H          -4.6910    0.4639    0.9503 H       1  LIG1        0.0000
     60 H          -4.8597   -2.8077    3.0017 H       1  LIG1        0.0000
     61 H          -5.2416   -1.8404    1.7427 H       1  LIG1        0.0000
     62 H          -3.6830   -2.0082    2.2001 H       1  LIG1        0.0000
     63 H          -5.3824   -1.9401    5.1001 H       1  LIG1        0.0000
     64 H          -5.8215    0.7051    7.5646 H       1  LIG1        0.0000
     65 H          -6.6755   -0.6000    7.0810 H       1  LIG1        0.0000
     66 H          -5.1170   -0.7678    7.5387 H       1  LIG1        0.0000
     67 H          -5.1636    2.1383    5.8492 H       1  LIG1        0.0000
     68 H          -4.5251    3.6300    4.2207 H       1  LIG1        0.0000
     69 H          -3.4174    3.0730    3.1579 H       1  LIG1        0.0000
     70 H          -4.9760    3.2406    2.7003 H       1  LIG1        0.0000
     71 H          -3.2530   -1.7482   -2.4541 H       1  LIG1        0.0000
     72 H          -3.4296   -1.7269   -0.8308 H       1  LIG1        0.0000
@<TRIPOS>BOND
     1     1     2    1
     2     2     3    1
     3     3     4    1
     4     4     5    1
     5     5     6    1
     6     6     7    1
     7     6     8    1
     8     8     9    1
     9     9    10    1
    10    10    11    1
    11    11    12   ar
    12    12    13   ar
    13    13    14   ar
    14    14    15   ar
    15    15    16    1
    16    15    17   ar
    17    17    11   ar
    18    10    18    2
    19    18    19    1
    20    19    20    2
    21    20     9    1
    22    20    21    1
    23    21    22    1
    24    21    23    1
    25    23    24    1
    26    24    25    2
    27    24    26   am
    28    26    27    1
    29    27    28   ar
    30    28    29    1
    31    28    30   ar
    32    30    31   ar
    33    31    32    1
    34    31    33   ar
    35    33    34   ar
    36    34    27   ar
    37    34    35    1
    38     6    36    1
    39    36     4    1
    40     4    37    1
    41     1    38    1
    42     1    39    1
    43     1    40    1
    44     2    41    1
    45     2    42    1
    46     5    43    1
    47     5    44    1
    48     7    45    1
    49     8    46    1
    50     8    47    1
    51    12    48    1
    52    13    49    1
    53    14    50    1
    54    16    51    1
    55    16    52    1
    56    16    53    1
    57    22    54    1
    58    22    55    1
    59    22    56    1
    60    23    57    1
    61    23    58    1
    62    26    59    1
    63    29    60    1
    64    29    61    1
    65    29    62    1
    66    30    63    1
    67    32    64    1
    68    32    65    1
    69    32    66    1
    70    33    67    1
    71    35    68    1
    72    35    69    1
    73    35    70    1
    74    36    71    1
    75    36    72    1
