@<TRIPOS>MOLECULE

  26   26
SMALL
USER_CHARGES
@<TRIPOS>ATOM
   1 C1           0.6377     2.0166    -2.7039 C.3          1    LIG   0.0000
   2 C2           0.3452     1.7240    -1.2413 C.2          1    LIG   0.0000
   3 C3           1.2925     1.2925    -0.4626 C.2          1    LIG   0.0000
   4 C4           1.0000     1.0000     1.0000 C.3          1    LIG   0.0000
   5 S5           2.0450     2.0450     2.0450 S.o          1    LIG   0.0000
   6 O6           3.4788     1.7583     1.7583 O.2          1    LIG   0.0000
   7 C7           1.7102     1.7102     3.7189 C.ar         1    LIG   0.0000
   8 C8           0.7183     2.4465     4.3593 C.ar         1    LIG   0.0000
   9 C9           0.4425     2.1874     5.6975 C.ar         1    LIG   0.0000
  10 C10          1.1535     1.2033     6.3765 C.ar         1    LIG   0.0000
  11 C11          0.8446     0.9268     7.8409 C.3          1    LIG   0.0000
  12 F12          0.1410     1.9372     8.3440 F            1    LIG   0.0000
  13 F13          0.1404    -0.1970     7.9409 F            1    LIG   0.0000
  14 F14          1.9825     0.7987     8.5175 F            1    LIG   0.0000
  15 C15          2.1328     0.5011     5.6816 C.ar         1    LIG   0.0000
  16 N16          2.3859     0.7656     4.3913 N.ar         1    LIG   0.0000
  17 H           -0.1963     2.3373    -3.1530 H            1    LIG   0.0000
  18 H            1.3433     2.7222    -2.7681 H            1    LIG   0.0000
  19 H            0.9584     1.1826    -3.1530 H            1    LIG   0.0000
  20 H           -0.5760     1.8635    -0.8780 H            1    LIG   0.0000
  21 H            2.2137     1.1530    -0.8259 H            1    LIG   0.0000
  22 H            0.0377     1.1925     1.1925 H            1    LIG   0.0000
  23 H            1.1925     0.0377     1.1925 H            1    LIG   0.0000
  24 H            0.2110     3.1519     3.8643 H            1    LIG   0.0000
  25 H           -0.2672     2.7085     6.1717 H            1    LIG   0.0000
  26 H            2.6553    -0.2109     6.1506 H            1    LIG   0.0000
@<TRIPOS>BOND
   1        1        2 1
   2        2        3 2
   3        3        4 1
   4        4        5 1
   5        5        6 2
   6        5        7 1
   7        7        8 ar
   8        8        9 ar
   9        9       10 ar
  10       10       11 1
  11       11       12 1
  12       11       13 1
  13       11       14 1
  14       10       15 ar
  15       15       16 ar
  16       16        7 ar
  17        1       17 1
  18        1       18 1
  19        1       19 1
  20        2       20 1
  21        3       21 1
  22        4       22 1
  23        4       23 1
  24        8       24 1
  25        9       25 1
  26       15       26 1

@<TRIPOS>MOLECULE

  26   26
SMALL
USER_CHARGES
@<TRIPOS>ATOM
   1 C1           2.4762     2.4762    -2.2443 C.3          1    LIG   0.0000
   2 C2           2.1836     2.1836    -0.7817 C.2          1    LIG   0.0000
   3 C3           1.2925     1.2925    -0.4626 C.2          1    LIG   0.0000
   4 C4           1.0000     1.0000     1.0000 C.3          1    LIG   0.0000
   5 S5           2.0450     2.0450     2.0450 S.o          1    LIG   0.0000
   6 O6           3.4788     1.7583     1.7583 O.2          1    LIG   0.0000
   7 C7           1.7102     1.7102     3.7189 C.ar         1    LIG   0.0000
   8 C8           0.7183     2.4465     4.3593 C.ar         1    LIG   0.0000
   9 C9           0.4425     2.1874     5.6975 C.ar         1    LIG   0.0000
  10 C10          1.1535     1.2033     6.3765 C.ar         1    LIG   0.0000
  11 C11          0.8446     0.9268     7.8409 C.3          1    LIG   0.0000
  12 F12          0.1410     1.9372     8.3440 F            1    LIG   0.0000
  13 F13          0.1404    -0.1970     7.9409 F            1    LIG   0.0000
  14 F14          1.9825     0.7987     8.5175 F            1    LIG   0.0000
  15 C15          2.1328     0.5011     5.6816 C.ar         1    LIG   0.0000
  16 N16          2.3859     0.7656     4.3913 N.ar         1    LIG   0.0000
  17 H            3.1818     3.1818    -2.3084 H            1    LIG   0.0000
  18 H            2.7969     1.6422    -2.6933 H            1    LIG   0.0000
  19 H            1.6422     2.7969    -2.6933 H            1    LIG   0.0000
  20 H            2.6767     2.6767    -0.0648 H            1    LIG   0.0000
  21 H            0.7995     0.7995    -1.1794 H            1    LIG   0.0000
  22 H            0.0377     1.1925     1.1925 H            1    LIG   0.0000
  23 H            1.1925     0.0377     1.1925 H            1    LIG   0.0000
  24 H            0.2110     3.1519     3.8643 H            1    LIG   0.0000
  25 H           -0.2672     2.7085     6.1717 H            1    LIG   0.0000
  26 H            2.6553    -0.2109     6.1506 H            1    LIG   0.0000
@<TRIPOS>BOND
   1        1        2 1
   2        2        3 2
   3        3        4 1
   4        4        5 1
   5        5        6 2
   6        5        7 1
   7        7        8 ar
   8        8        9 ar
   9        9       10 ar
  10       10       11 1
  11       11       12 1
  12       11       13 1
  13       11       14 1
  14       10       15 ar
  15       15       16 ar
  16       16        7 ar
  17        1       17 1
  18        1       18 1
  19        1       19 1
  20        2       20 1
  21        3       21 1
  22        4       22 1
  23        4       23 1
  24        8       24 1
  25        9       25 1
  26       15       26 1

@<TRIPOS>MOLECULE

  26   26
SMALL
USER_CHARGES
@<TRIPOS>ATOM
   1 C1           0.6377     2.0166    -2.7039 C.3          1    LIG   0.0000
   2 C2           0.3452     1.7240    -1.2413 C.2          1    LIG   0.0000
   3 C3           1.2925     1.2925    -0.4626 C.2          1    LIG   0.0000
   4 C4           1.0000     1.0000     1.0000 C.3          1    LIG   0.0000
   5 S5           2.0450     2.0450     2.0450 S.o          1    LIG   0.0000
   6 O6           3.4788     1.7583     1.7583 O.2          1    LIG   0.0000
   7 C7           1.7102     1.7102     3.7189 C.ar         1    LIG   0.0000
   8 C8           0.4300     1.2944     4.0712 C.ar         1    LIG   0.0000
   9 C9           0.1511     1.0242     5.4066 C.ar         1    LIG   0.0000
  10 C10          1.1456     1.1700     6.3682 C.ar         1    LIG   0.0000
  11 C11          0.8310     0.8720     7.8272 C.3          1    LIG   0.0000
  12 F12          0.1231     1.8735     8.3416 F            1    LIG   0.0000
  13 F13          0.1289    -0.2547     7.9082 F            1    LIG   0.0000
  14 F14          1.9663     0.7367     8.5068 F            1    LIG   0.0000
  15 C15          2.4057     1.5886     5.9537 C.ar         1    LIG   0.0000
  16 N16          2.6560     1.8458     4.6614 N.ar         1    LIG   0.0000
  17 H           -0.1963     2.3373    -3.1530 H            1    LIG   0.0000
  18 H            1.3433     2.7222    -2.7681 H            1    LIG   0.0000
  19 H            0.9584     1.1826    -3.1530 H            1    LIG   0.0000
  20 H           -0.5760     1.8635    -0.8780 H            1    LIG   0.0000
  21 H            2.2137     1.1530    -0.8259 H            1    LIG   0.0000
  22 H            0.0377     1.1925     1.1925 H            1    LIG   0.0000
  23 H            1.1925     0.0377     1.1925 H            1    LIG   0.0000
  24 H           -0.2795     1.1914     3.3741 H            1    LIG   0.0000
  25 H           -0.7644     0.7251     5.6756 H            1    LIG   0.0000
  26 H            3.1352     1.6993     6.6287 H            1    LIG   0.0000
@<TRIPOS>BOND
   1        1        2 1
   2        2        3 2
   3        3        4 1
   4        4        5 1
   5        5        6 2
   6        5        7 1
   7        7        8 ar
   8        8        9 ar
   9        9       10 ar
  10       10       11 1
  11       11       12 1
  12       11       13 1
  13       11       14 1
  14       10       15 ar
  15       15       16 ar
  16       16        7 ar
  17        1       17 1
  18        1       18 1
  19        1       19 1
  20        2       20 1
  21        3       21 1
  22        4       22 1
  23        4       23 1
  24        8       24 1
  25        9       25 1
  26       15       26 1

@<TRIPOS>MOLECULE

  26   26
SMALL
USER_CHARGES
@<TRIPOS>ATOM
   1 C1           0.6377     2.0166    -2.7039 C.3          1    LIG   0.0000
   2 C2           0.3452     1.7240    -1.2413 C.2          1    LIG   0.0000
   3 C3           1.2925     1.2925    -0.4626 C.2          1    LIG   0.0000
   4 C4           1.0000     1.0000     1.0000 C.3          1    LIG   0.0000
   5 S5           2.0450     2.0450     2.0450 S.o          1    LIG   0.0000
   6 O6           3.4788     1.7583     1.7583 O.2          1    LIG   0.0000
   7 C7           1.7102     1.7102     3.7189 C.ar         1    LIG   0.0000
   8 C8           1.8705     2.7342     4.6473 C.ar         1    LIG   0.0000
   9 C9           1.6059     2.4777     5.9882 C.ar         1    LIG   0.0000
  10 C10          1.1866     1.2120     6.3849 C.ar         1    LIG   0.0000
  11 C11          0.8994     0.9407     7.8546 C.3          1    LIG   0.0000
  12 F12          0.2012     1.9517     8.3639 F            1    LIG   0.0000
  13 F13          0.1988    -0.1840     7.9692 F            1    LIG   0.0000
  14 F14          2.0471     0.8173     8.5152 F            1    LIG   0.0000
  15 C15          1.0447     0.2301     5.4098 C.ar         1    LIG   0.0000
  16 N16          1.3057     0.4955     4.1212 N.ar         1    LIG   0.0000
  17 H           -0.1963     2.3373    -3.1530 H            1    LIG   0.0000
  18 H            1.3433     2.7222    -2.7681 H            1    LIG   0.0000
  19 H            0.9584     1.1826    -3.1530 H            1    LIG   0.0000
  20 H           -0.5760     1.8635    -0.8780 H            1    LIG   0.0000
  21 H            2.2137     1.1530    -0.8259 H            1    LIG   0.0000
  22 H            0.0377     1.1925     1.1925 H            1    LIG   0.0000
  23 H            1.1925     0.0377     1.1925 H            1    LIG   0.0000
  24 H            2.1717     3.6417     4.3544 H            1    LIG   0.0000
  25 H            1.7170     3.2031     6.6674 H            1    LIG   0.0000
  26 H            0.7439    -0.6864     5.6733 H            1    LIG   0.0000
@<TRIPOS>BOND
   1        1        2 1
   2        2        3 2
   3        3        4 1
   4        4        5 1
   5        5        6 2
   6        5        7 1
   7        7        8 ar
   8        8        9 ar
   9        9       10 ar
  10       10       11 1
  11       11       12 1
  12       11       13 1
  13       11       14 1
  14       10       15 ar
  15       15       16 ar
  16       16        7 ar
  17        1       17 1
  18        1       18 1
  19        1       19 1
  20        2       20 1
  21        3       21 1
  22        4       22 1
  23        4       23 1
  24        8       24 1
  25        9       25 1
  26       15       26 1

@<TRIPOS>MOLECULE

  26   26
SMALL
USER_CHARGES
@<TRIPOS>ATOM
   1 C1           0.6377     2.0166    -2.7039 C.3          1    LIG   0.0000
   2 C2           0.3452     1.7240    -1.2413 C.2          1    LIG   0.0000
   3 C3           1.2925     1.2925    -0.4626 C.2          1    LIG   0.0000
   4 C4           1.0000     1.0000     1.0000 C.3          1    LIG   0.0000
   5 S5           2.0450     2.0450     2.0450 S.o          1    LIG   0.0000
   6 O6           3.4788     1.7583     1.7583 O.2          1    LIG   0.0000
   7 C7           1.7102     1.7102     3.7189 C.ar         1    LIG   0.0000
   8 C8           2.4460     0.7179     4.3591 C.ar         1    LIG   0.0000
   9 C9           2.1866     0.4417     5.6972 C.ar         1    LIG   0.0000
  10 C10          1.2039     1.1540     6.3767 C.ar         1    LIG   0.0000
  11 C11          0.9270     0.8448     7.8410 C.3          1    LIG   0.0000
  12 F12          0.2258     1.8386     8.3791 F            1    LIG   0.0000
  13 F13          0.2340    -0.2867     7.9318 F            1    LIG   0.0000
  14 F14          2.0794     0.7123     8.4917 F            1    LIG   0.0000
  15 C15          0.5025     2.1342     5.6822 C.ar         1    LIG   0.0000
  16 N16          0.7656     2.3859     4.3913 N.ar         1    LIG   0.0000
  17 H           -0.1963     2.3373    -3.1530 H            1    LIG   0.0000
  18 H            1.3433     2.7222    -2.7681 H            1    LIG   0.0000
  19 H            0.9584     1.1826    -3.1530 H            1    LIG   0.0000
  20 H           -0.5760     1.8635    -0.8780 H            1    LIG   0.0000
  21 H            2.2137     1.1530    -0.8259 H            1    LIG   0.0000
  22 H            0.0377     1.1925     1.1925 H            1    LIG   0.0000
  23 H            1.1925     0.0377     1.1925 H            1    LIG   0.0000
  24 H            3.1513     0.2104     3.8641 H            1    LIG   0.0000
  25 H            2.7066    -0.2690     6.1709 H            1    LIG   0.0000
  26 H           -0.2078     2.6584     6.1519 H            1    LIG   0.0000
@<TRIPOS>BOND
   1        1        2 1
   2        2        3 2
   3        3        4 1
   4        4        5 1
   5        5        6 2
   6        5        7 1
   7        7        8 ar
   8        8        9 ar
   9        9       10 ar
  10       10       11 1
  11       11       12 1
  12       11       13 1
  13       11       14 1
  14       10       15 ar
  15       15       16 ar
  16       16        7 ar
  17        1       17 1
  18        1       18 1
  19        1       19 1
  20        2       20 1
  21        3       21 1
  22        4       22 1
  23        4       23 1
  24        8       24 1
  25        9       25 1
  26       15       26 1

@<TRIPOS>MOLECULE

  26   26
SMALL
USER_CHARGES
@<TRIPOS>ATOM
   1 C1           2.4762     2.4762    -2.2443 C.3          1    LIG   0.0000
   2 C2           2.1836     2.1836    -0.7817 C.2          1    LIG   0.0000
   3 C3           1.2925     1.2925    -0.4626 C.2          1    LIG   0.0000
   4 C4           1.0000     1.0000     1.0000 C.3          1    LIG   0.0000
   5 S5           2.0450     2.0450     2.0450 S.o          1    LIG   0.0000
   6 O6           3.4788     1.7583     1.7583 O.2          1    LIG   0.0000
   7 C7           1.7102     1.7102     3.7189 C.ar         1    LIG   0.0000
   8 C8           2.4460     0.7179     4.3591 C.ar         1    LIG   0.0000
   9 C9           2.1866     0.4417     5.6972 C.ar         1    LIG   0.0000
  10 C10          1.2039     1.1540     6.3767 C.ar         1    LIG   0.0000
  11 C11          0.9270     0.8448     7.8410 C.3          1    LIG   0.0000
  12 F12          0.2258     1.8386     8.3791 F            1    LIG   0.0000
  13 F13          0.2340    -0.2867     7.9318 F            1    LIG   0.0000
  14 F14          2.0794     0.7123     8.4917 F            1    LIG   0.0000
  15 C15          0.5025     2.1342     5.6822 C.ar         1    LIG   0.0000
  16 N16          0.7656     2.3859     4.3913 N.ar         1    LIG   0.0000
  17 H            3.1818     3.1818    -2.3084 H            1    LIG   0.0000
  18 H            2.7969     1.6422    -2.6933 H            1    LIG   0.0000
  19 H            1.6422     2.7969    -2.6933 H            1    LIG   0.0000
  20 H            2.6767     2.6767    -0.0648 H            1    LIG   0.0000
  21 H            0.7995     0.7995    -1.1794 H            1    LIG   0.0000
  22 H            0.0377     1.1925     1.1925 H            1    LIG   0.0000
  23 H            1.1925     0.0377     1.1925 H            1    LIG   0.0000
  24 H            3.1513     0.2104     3.8641 H            1    LIG   0.0000
  25 H            2.7066    -0.2690     6.1709 H            1    LIG   0.0000
  26 H           -0.2078     2.6584     6.1519 H            1    LIG   0.0000
@<TRIPOS>BOND
   1        1        2 1
   2        2        3 2
   3        3        4 1
   4        4        5 1
   5        5        6 2
   6        5        7 1
   7        7        8 ar
   8        8        9 ar
   9        9       10 ar
  10       10       11 1
  11       11       12 1
  12       11       13 1
  13       11       14 1
  14       10       15 ar
  15       15       16 ar
  16       16        7 ar
  17        1       17 1
  18        1       18 1
  19        1       19 1
  20        2       20 1
  21        3       21 1
  22        4       22 1
  23        4       23 1
  24        8       24 1
  25        9       25 1
  26       15       26 1

@<TRIPOS>MOLECULE

  26   26
SMALL
USER_CHARGES
@<TRIPOS>ATOM
   1 C1           0.6377     2.0166    -2.7039 C.3          1    LIG   0.0000
   2 C2           0.3452     1.7240    -1.2413 C.2          1    LIG   0.0000
   3 C3           1.2925     1.2925    -0.4626 C.2          1    LIG   0.0000
   4 C4           1.0000     1.0000     1.0000 C.3          1    LIG   0.0000
   5 S5           2.0450     2.0450     2.0450 S.o          1    LIG   0.0000
   6 O6           3.4788     1.7583     1.7583 O.2          1    LIG   0.0000
   7 C7           1.7102     1.7102     3.7189 C.ar         1    LIG   0.0000
   8 C8           2.7344     1.8699     4.6472 C.ar         1    LIG   0.0000
   9 C9           2.4779     1.6048     5.9881 C.ar         1    LIG   0.0000
  10 C10          1.2118     1.1874     6.3850 C.ar         1    LIG   0.0000
  11 C11          0.9406     0.8997     7.8547 C.3          1    LIG   0.0000
  12 F12          0.2436     1.9025     8.3814 F            1    LIG   0.0000
  13 F13          0.2457    -0.2290     7.9646 F            1    LIG   0.0000
  14 F14          2.0955     0.7741     8.5023 F            1    LIG   0.0000
  15 C15          0.2296     1.0467     5.4101 C.ar         1    LIG   0.0000
  16 N16          0.4955     1.3057     4.1212 N.ar         1    LIG   0.0000
  17 H           -0.1963     2.3373    -3.1530 H            1    LIG   0.0000
  18 H            1.3433     2.7222    -2.7681 H            1    LIG   0.0000
  19 H            0.9584     1.1826    -3.1530 H            1    LIG   0.0000
  20 H           -0.5760     1.8635    -0.8780 H            1    LIG   0.0000
  21 H            2.2137     1.1530    -0.8259 H            1    LIG   0.0000
  22 H            0.0377     1.1925     1.1925 H            1    LIG   0.0000
  23 H            1.1925     0.0377     1.1925 H            1    LIG   0.0000
  24 H            3.6419     2.1709     4.3543 H            1    LIG   0.0000
  25 H            3.2039     1.7144     6.6671 H            1    LIG   0.0000
  26 H           -0.6877     0.7482     5.6739 H            1    LIG   0.0000
@<TRIPOS>BOND
   1        1        2 1
   2        2        3 2
   3        3        4 1
   4        4        5 1
   5        5        6 2
   6        5        7 1
   7        7        8 ar
   8        8        9 ar
   9        9       10 ar
  10       10       11 1
  11       11       12 1
  12       11       13 1
  13       11       14 1
  14       10       15 ar
  15       15       16 ar
  16       16        7 ar
  17        1       17 1
  18        1       18 1
  19        1       19 1
  20        2       20 1
  21        3       21 1
  22        4       22 1
  23        4       23 1
  24        8       24 1
  25        9       25 1
  26       15       26 1

@<TRIPOS>MOLECULE

  26   26
SMALL
USER_CHARGES
@<TRIPOS>ATOM
   1 C1           0.6377     2.0166    -2.7039 C.3          1    LIG   0.0000
   2 C2           0.3452     1.7240    -1.2413 C.2          1    LIG   0.0000
   3 C3           1.2925     1.2925    -0.4626 C.2          1    LIG   0.0000
   4 C4           1.0000     1.0000     1.0000 C.3          1    LIG   0.0000
   5 S5           2.0450     2.0450     2.0450 S.o          1    LIG   0.0000
   6 O6           3.4788     1.7583     1.7583 O.2          1    LIG   0.0000
   7 C7           1.7102     1.7102     3.7189 C.ar         1    LIG   0.0000
   8 C8           1.2938     0.4301     4.0711 C.ar         1    LIG   0.0000
   9 C9           1.0232     0.1514     5.4065 C.ar         1    LIG   0.0000
  10 C10          1.1708     1.1453     6.3683 C.ar         1    LIG   0.0000
  11 C11          0.8723     0.8309     7.8272 C.3          1    LIG   0.0000
  12 F12          0.1654     1.8241     8.3591 F            1    LIG   0.0000
  13 F13          0.1756    -0.2995     7.9036 F            1    LIG   0.0000
  14 F14          2.0149     0.6935     8.4939 F            1    LIG   0.0000
  15 C15          1.5906     2.4051     5.9540 C.ar         1    LIG   0.0000
  16 N16          1.8458     2.6560     4.6614 N.ar         1    LIG   0.0000
  17 H           -0.1963     2.3373    -3.1530 H            1    LIG   0.0000
  18 H            1.3433     2.7222    -2.7681 H            1    LIG   0.0000
  19 H            0.9584     1.1826    -3.1530 H            1    LIG   0.0000
  20 H           -0.5760     1.8635    -0.8780 H            1    LIG   0.0000
  21 H            2.2137     1.1530    -0.8259 H            1    LIG   0.0000
  22 H            0.0377     1.1925     1.1925 H            1    LIG   0.0000
  23 H            1.1925     0.0377     1.1925 H            1    LIG   0.0000
  24 H            1.1906    -0.2793     3.3740 H            1    LIG   0.0000
  25 H            0.7225    -0.7637     5.6752 H            1    LIG   0.0000
  26 H            1.7036     3.1339     6.6293 H            1    LIG   0.0000
@<TRIPOS>BOND
   1        1        2 1
   2        2        3 2
   3        3        4 1
   4        4        5 1
   5        5        6 2
   6        5        7 1
   7        7        8 ar
   8        8        9 ar
   9        9       10 ar
  10       10       11 1
  11       11       12 1
  12       11       13 1
  13       11       14 1
  14       10       15 ar
  15       15       16 ar
  16       16        7 ar
  17        1       17 1
  18        1       18 1
  19        1       19 1
  20        2       20 1
  21        3       21 1
  22        4       22 1
  23        4       23 1
  24        8       24 1
  25        9       25 1
  26       15       26 1

@<TRIPOS>MOLECULE

  26   26
SMALL
USER_CHARGES
@<TRIPOS>ATOM
   1 C1           2.6272     1.0592    -2.4975 C.3          1    LIG   0.0000
   2 C2           2.3346     0.7666    -1.0349 C.2          1    LIG   0.0000
   3 C3           1.2925     1.2925    -0.4626 C.2          1    LIG   0.0000
   4 C4           1.0000     1.0000     1.0000 C.3          1    LIG   0.0000
   5 S5           2.0450     2.0450     2.0450 S.o          1    LIG   0.0000
   6 O6           3.4788     1.7583     1.7583 O.2          1    LIG   0.0000
   7 C7           1.7102     1.7102     3.7189 C.ar         1    LIG   0.0000
   8 C8           1.2938     0.4301     4.0711 C.ar         1    LIG   0.0000
   9 C9           1.0232     0.1514     5.4065 C.ar         1    LIG   0.0000
  10 C10          1.1708     1.1453     6.3683 C.ar         1    LIG   0.0000
  11 C11          0.8723     0.8309     7.8272 C.3          1    LIG   0.0000
  12 F12          0.1654     1.8241     8.3591 F            1    LIG   0.0000
  13 F13          0.1756    -0.2995     7.9036 F            1    LIG   0.0000
  14 F14          2.0149     0.6935     8.4939 F            1    LIG   0.0000
  15 C15          1.5906     2.4051     5.9540 C.ar         1    LIG   0.0000
  16 N16          1.8458     2.6560     4.6614 N.ar         1    LIG   0.0000
  17 H            3.4592     0.5782    -2.7737 H            1    LIG   0.0000
  18 H            1.8605     0.7485    -3.0594 H            1    LIG   0.0000
  19 H            2.7542     2.0433    -2.6217 H            1    LIG   0.0000
  20 H            2.9438     0.1697    -0.5128 H            1    LIG   0.0000
  21 H            0.6834     1.8895    -0.9847 H            1    LIG   0.0000
  22 H            0.0377     1.1925     1.1925 H            1    LIG   0.0000
  23 H            1.1925     0.0377     1.1925 H            1    LIG   0.0000
  24 H            1.1906    -0.2793     3.3740 H            1    LIG   0.0000
  25 H            0.7225    -0.7637     5.6752 H            1    LIG   0.0000
  26 H            1.7036     3.1339     6.6293 H            1    LIG   0.0000
@<TRIPOS>BOND
   1        1        2 1
   2        2        3 2
   3        3        4 1
   4        4        5 1
   5        5        6 2
   6        5        7 1
   7        7        8 ar
   8        8        9 ar
   9        9       10 ar
  10       10       11 1
  11       11       12 1
  12       11       13 1
  13       11       14 1
  14       10       15 ar
  15       15       16 ar
  16       16        7 ar
  17        1       17 1
  18        1       18 1
  19        1       19 1
  20        2       20 1
  21        3       21 1
  22        4       22 1
  23        4       23 1
  24        8       24 1
  25        9       25 1
  26       15       26 1

@<TRIPOS>MOLECULE

  26   26
SMALL
USER_CHARGES
@<TRIPOS>ATOM
   1 C1           2.0166     0.6377    -2.7039 C.3          1    LIG   0.0000
   2 C2           1.7240     0.3452    -1.2413 C.2          1    LIG   0.0000
   3 C3           1.2925     1.2925    -0.4626 C.2          1    LIG   0.0000
   4 C4           1.0000     1.0000     1.0000 C.3          1    LIG   0.0000
   5 S5           2.0450     2.0450     2.0450 S.o          1    LIG   0.0000
   6 O6           3.4096     2.1326     1.4531 O.2          1    LIG   0.0000
   7 C7           2.1472     1.3539     3.6382 C.ar         1    LIG   0.0000
   8 C8           1.2040     1.7312     4.5889 C.ar         1    LIG   0.0000
   9 C9           1.2763     1.1851     5.8659 C.ar         1    LIG   0.0000
  10 C10          2.2810     0.2750     6.1773 C.ar         1    LIG   0.0000
  11 C11          2.3522    -0.3173     7.5775 C.3          1    LIG   0.0000
  12 F12          1.7286     0.4887     8.4321 F            1    LIG   0.0000
  13 F13          1.7648    -1.5106     7.5845 F            1    LIG   0.0000
  14 F14          3.6253    -0.4477     7.9395 F            1    LIG   0.0000
  15 C15          3.1943    -0.0628     5.1839 C.ar         1    LIG   0.0000
  16 N16          3.1096     0.4750     3.9581 N.ar         1    LIG   0.0000
  17 H            2.3373    -0.1963    -3.1530 H            1    LIG   0.0000
  18 H            1.1826     0.9584    -3.1530 H            1    LIG   0.0000
  19 H            2.7222     1.3433    -2.7681 H            1    LIG   0.0000
  20 H            1.8635    -0.5760    -0.8780 H            1    LIG   0.0000
  21 H            1.1530     2.2137    -0.8259 H            1    LIG   0.0000
  22 H            0.0377     1.1925     1.1925 H            1    LIG   0.0000
  23 H            1.1925     0.0377     1.1925 H            1    LIG   0.0000
  24 H            0.4842     2.3857     4.3573 H            1    LIG   0.0000
  25 H            0.6060     1.4469     6.5602 H            1    LIG   0.0000
  26 H            3.9241    -0.7156     5.3865 H            1    LIG   0.0000
@<TRIPOS>BOND
   1        1        2 1
   2        2        3 2
   3        3        4 1
   4        4        5 1
   5        5        6 2
   6        5        7 1
   7        7        8 ar
   8        8        9 ar
   9        9       10 ar
  10       10       11 1
  11       11       12 1
  12       11       13 1
  13       11       14 1
  14       10       15 ar
  15       15       16 ar
  16       16        7 ar
  17        1       17 1
  18        1       18 1
  19        1       19 1
  20        2       20 1
  21        3       21 1
  22        4       22 1
  23        4       23 1
  24        8       24 1
  25        9       25 1
  26       15       26 1

@<TRIPOS>MOLECULE

  26   26
SMALL
USER_CHARGES
@<TRIPOS>ATOM
   1 C1           2.0166     0.6377    -2.7039 C.3          1    LIG   0.0000
   2 C2           1.7240     0.3452    -1.2413 C.2          1    LIG   0.0000
   3 C3           1.2925     1.2925    -0.4626 C.2          1    LIG   0.0000
   4 C4           1.0000     1.0000     1.0000 C.3          1    LIG   0.0000
   5 S5           2.0450     2.0450     2.0450 S.o          1    LIG   0.0000
   6 O6           3.4096     2.1326     1.4531 O.2          1    LIG   0.0000
   7 C7           2.1472     1.3539     3.6382 C.ar         1    LIG   0.0000
   8 C8           1.0689     0.6139     4.1129 C.ar         1    LIG   0.0000
   9 C9           1.1397     0.0570     5.3853 C.ar         1    LIG   0.0000
  10 C10          2.2775     0.2427     6.1636 C.ar         1    LIG   0.0000
  11 C11          2.3459    -0.3705     7.5548 C.3          1    LIG   0.0000
  12 F12          1.7199     0.4222     8.4200 F            1    LIG   0.0000
  13 F13          1.7593    -1.5641     7.5425 F            1    LIG   0.0000
  14 F14          3.6183    -0.5057     7.9177 F            1    LIG   0.0000
  15 C15          3.3226     0.9922     5.6333 C.ar         1    LIG   0.0000
  16 N16          3.2360     1.5227     4.4045 N.ar         1    LIG   0.0000
  17 H            2.3373    -0.1963    -3.1530 H            1    LIG   0.0000
  18 H            1.1826     0.9584    -3.1530 H            1    LIG   0.0000
  19 H            2.7222     1.3433    -2.7681 H            1    LIG   0.0000
  20 H            1.8635    -0.5760    -0.8780 H            1    LIG   0.0000
  21 H            1.1530     2.2137    -0.8259 H            1    LIG   0.0000
  22 H            0.0377     1.1925     1.1925 H            1    LIG   0.0000
  23 H            1.1925     0.0377     1.1925 H            1    LIG   0.0000
  24 H            0.2545     0.4842     3.5472 H            1    LIG   0.0000
  25 H            0.3725    -0.4770     5.7407 H            1    LIG   0.0000
  26 H            4.1499     1.1374     6.1758 H            1    LIG   0.0000
@<TRIPOS>BOND
   1        1        2 1
   2        2        3 2
   3        3        4 1
   4        4        5 1
   5        5        6 2
   6        5        7 1
   7        7        8 ar
   8        8        9 ar
   9        9       10 ar
  10       10       11 1
  11       11       12 1
  12       11       13 1
  13       11       14 1
  14       10       15 ar
  15       15       16 ar
  16       16        7 ar
  17        1       17 1
  18        1       18 1
  19        1       19 1
  20        2       20 1
  21        3       21 1
  22        4       22 1
  23        4       23 1
  24        8       24 1
  25        9       25 1
  26       15       26 1

@<TRIPOS>MOLECULE

  26   26
SMALL
USER_CHARGES
@<TRIPOS>ATOM
   1 C1           2.0166     0.6377    -2.7039 C.3          1    LIG   0.0000
   2 C2           1.7240     0.3452    -1.2413 C.2          1    LIG   0.0000
   3 C3           1.2925     1.2925    -0.4626 C.2          1    LIG   0.0000
   4 C4           1.0000     1.0000     1.0000 C.3          1    LIG   0.0000
   5 S5           2.0450     2.0450     2.0450 S.o          1    LIG   0.0000
   6 O6           3.4096     2.1326     1.4531 O.2          1    LIG   0.0000
   7 C7           2.1472     1.3539     3.6382 C.ar         1    LIG   0.0000
   8 C8           2.3215     2.2070     4.7235 C.ar         1    LIG   0.0000
   9 C9           2.4047     1.6653     6.0017 C.ar         1    LIG   0.0000
  10 C10          2.3131     0.2890     6.1814 C.ar         1    LIG   0.0000
  11 C11          2.4053    -0.2946     7.5840 C.3          1    LIG   0.0000
  12 F12          1.7904     0.5144     8.4421 F            1    LIG   0.0000
  13 F13          1.8225    -1.4899     7.6060 F            1    LIG   0.0000
  14 F14          3.6837    -0.4182     7.9295 F            1    LIG   0.0000
  15 C15          2.1389    -0.5113     5.0571 C.ar         1    LIG   0.0000
  16 N16          2.0620     0.0287     3.8318 N.ar         1    LIG   0.0000
  17 H            2.3373    -0.1963    -3.1530 H            1    LIG   0.0000
  18 H            1.1826     0.9584    -3.1530 H            1    LIG   0.0000
  19 H            2.7222     1.3433    -2.7681 H            1    LIG   0.0000
  20 H            1.8635    -0.5760    -0.8780 H            1    LIG   0.0000
  21 H            1.1530     2.2137    -0.8259 H            1    LIG   0.0000
  22 H            0.0377     1.1925     1.1925 H            1    LIG   0.0000
  23 H            1.1925     0.0377     1.1925 H            1    LIG   0.0000
  24 H            2.3859     3.1954     4.5865 H            1    LIG   0.0000
  25 H            2.5305     2.2654     6.7918 H            1    LIG   0.0000
  26 H            2.0700    -1.5032     5.1639 H            1    LIG   0.0000
@<TRIPOS>BOND
   1        1        2 1
   2        2        3 2
   3        3        4 1
   4        4        5 1
   5        5        6 2
   6        5        7 1
   7        7        8 ar
   8        8        9 ar
   9        9       10 ar
  10       10       11 1
  11       11       12 1
  12       11       13 1
  13       11       14 1
  14       10       15 ar
  15       15       16 ar
  16       16        7 ar
  17        1       17 1
  18        1       18 1
  19        1       19 1
  20        2       20 1
  21        3       21 1
  22        4       22 1
  23        4       23 1
  24        8       24 1
  25        9       25 1
  26       15       26 1

@<TRIPOS>MOLECULE

  26   26
SMALL
USER_CHARGES
@<TRIPOS>ATOM
   1 C1           2.0166     0.6377    -2.7039 C.3          1    LIG   0.0000
   2 C2           1.7240     0.3452    -1.2413 C.2          1    LIG   0.0000
   3 C3           1.2925     1.2925    -0.4626 C.2          1    LIG   0.0000
   4 C4           1.0000     1.0000     1.0000 C.3          1    LIG   0.0000
   5 S5           2.0450     2.0450     2.0450 S.o          1    LIG   0.0000
   6 O6           3.4096     2.1326     1.4531 O.2          1    LIG   0.0000
   7 C7           2.1472     1.3539     3.6382 C.ar         1    LIG   0.0000
   8 C8           3.1688     0.4480     3.9062 C.ar         1    LIG   0.0000
   9 C9           3.2599    -0.1108     5.1764 C.ar         1    LIG   0.0000
  10 C10          2.3382     0.2386     6.1579 C.ar         1    LIG   0.0000
  11 C11          2.4459    -0.3782     7.5451 C.3          1    LIG   0.0000
  12 F12          1.8353     0.4070     8.4280 F            1    LIG   0.0000
  13 F13          1.8686    -1.5764     7.5436 F            1    LIG   0.0000
  14 F14          3.7279    -0.5042     7.8759 F            1    LIG   0.0000
  15 C15          1.3400     1.1499     5.8289 C.ar         1    LIG   0.0000
  16 N16          1.2670     1.6777     4.5981 N.ar         1    LIG   0.0000
  17 H            2.3373    -0.1963    -3.1530 H            1    LIG   0.0000
  18 H            1.1826     0.9584    -3.1530 H            1    LIG   0.0000
  19 H            2.7222     1.3433    -2.7681 H            1    LIG   0.0000
  20 H            1.8635    -0.5760    -0.8780 H            1    LIG   0.0000
  21 H            1.1530     2.2137    -0.8259 H            1    LIG   0.0000
  22 H            0.0377     1.1925     1.1925 H            1    LIG   0.0000
  23 H            1.1925     0.0377     1.1925 H            1    LIG   0.0000
  24 H            3.8280     0.2023     3.1956 H            1    LIG   0.0000
  25 H            3.9881    -0.7638     5.3843 H            1    LIG   0.0000
  26 H            0.6675     1.4152     6.5198 H            1    LIG   0.0000
@<TRIPOS>BOND
   1        1        2 1
   2        2        3 2
   3        3        4 1
   4        4        5 1
   5        5        6 2
   6        5        7 1
   7        7        8 ar
   8        8        9 ar
   9        9       10 ar
  10       10       11 1
  11       11       12 1
  12       11       13 1
  13       11       14 1
  14       10       15 ar
  15       15       16 ar
  16       16        7 ar
  17        1       17 1
  18        1       18 1
  19        1       19 1
  20        2       20 1
  21        3       21 1
  22        4       22 1
  23        4       23 1
  24        8       24 1
  25        9       25 1
  26       15       26 1

@<TRIPOS>MOLECULE

  26   26
SMALL
USER_CHARGES
@<TRIPOS>ATOM
   1 C1           2.0166     0.6377    -2.7039 C.3          1    LIG   0.0000
   2 C2           1.7240     0.3452    -1.2413 C.2          1    LIG   0.0000
   3 C3           1.2925     1.2925    -0.4626 C.2          1    LIG   0.0000
   4 C4           1.0000     1.0000     1.0000 C.3          1    LIG   0.0000
   5 S5           2.0450     2.0450     2.0450 S.o          1    LIG   0.0000
   6 O6           3.4096     2.1326     1.4531 O.2          1    LIG   0.0000
   7 C7           2.1472     1.3539     3.6382 C.ar         1    LIG   0.0000
   8 C8           3.3039     1.5654     4.3822 C.ar         1    LIG   0.0000
   9 C9           3.3965     1.0174     5.6570 C.ar         1    LIG   0.0000
  10 C10          2.3417     0.2708     6.1717 C.ar         1    LIG   0.0000
  11 C11          2.4521    -0.3250     7.5678 C.3          1    LIG   0.0000
  12 F12          1.8437     0.4737     8.4401 F            1    LIG   0.0000
  13 F13          1.8744    -1.5228     7.5856 F            1    LIG   0.0000
  14 F14          3.7348    -0.4465     7.8977 F            1    LIG   0.0000
  15 C15          1.2117     0.0950     5.3796 C.ar         1    LIG   0.0000
  16 N16          1.1407     0.6300     4.1517 N.ar         1    LIG   0.0000
  17 H            2.3373    -0.1963    -3.1530 H            1    LIG   0.0000
  18 H            1.1826     0.9584    -3.1530 H            1    LIG   0.0000
  19 H            2.7222     1.3433    -2.7681 H            1    LIG   0.0000
  20 H            1.8635    -0.5760    -0.8780 H            1    LIG   0.0000
  21 H            1.1530     2.2137    -0.8259 H            1    LIG   0.0000
  22 H            0.0377     1.1925     1.1925 H            1    LIG   0.0000
  23 H            1.1925     0.0377     1.1925 H            1    LIG   0.0000
  24 H            4.0578     2.1037     4.0056 H            1    LIG   0.0000
  25 H            4.2216     1.1600     6.2038 H            1    LIG   0.0000
  26 H            0.4417    -0.4378     5.7305 H            1    LIG   0.0000
@<TRIPOS>BOND
   1        1        2 1
   2        2        3 2
   3        3        4 1
   4        4        5 1
   5        5        6 2
   6        5        7 1
   7        7        8 ar
   8        8        9 ar
   9        9       10 ar
  10       10       11 1
  11       11       12 1
  12       11       13 1
  13       11       14 1
  14       10       15 ar
  15       15       16 ar
  16       16        7 ar
  17        1       17 1
  18        1       18 1
  19        1       19 1
  20        2       20 1
  21        3       21 1
  22        4       22 1
  23        4       23 1
  24        8       24 1
  25        9       25 1
  26       15       26 1

