@<TRIPOS>MOLECULE
*****
 26 26 0 0 0
SMALL
USER_CHARGES

@<TRIPOS>ATOM
      1 C1          2.4762    2.4762   -2.2443 C.3     1  LIG1        0.0000
      2 C2          2.1836    2.1836   -0.7817 C.2     1  LIG1        0.0000
      3 C3          1.2925    1.2925   -0.4626 C.2     1  LIG1        0.0000
      4 C4          1.0000    1.0000    1.0000 C.3     1  LIG1        0.0000
      5 S5          2.0450    2.0450    2.0450 S.O     1  LIG1        0.0000
      6 O6          3.4788    1.7583    1.7583 O.2     1  LIG1        0.0000
      7 C7          1.7102    1.7102    3.7189 C.3     1  LIG1        0.0000
      8 C8          0.7183    2.4465    4.3593 C.3     1  LIG1        0.0000
      9 C9          0.4425    2.1874    5.6975 C.3     1  LIG1        0.0000
     10 C10         1.1535    1.2033    6.3765 C.3     1  LIG1        0.0000
     11 C11         0.8446    0.9268    7.8409 C.3     1  LIG1        0.0000
     12 F12         0.1410    1.9372    8.3440 F       1  LIG1        0.0000
     13 F13         0.1404   -0.1970    7.9409 F       1  LIG1        0.0000
     14 F14         1.9825    0.7987    8.5175 F       1  LIG1        0.0000
     15 C15         2.1328    0.5011    5.6816 C.3     1  LIG1        0.0000
     16 N16         2.3859    0.7656    4.3913 N.pl3   1  LIG1        0.0000
     17 H           3.1818    3.1818   -2.3084 H       1  LIG1        0.0000
     18 H           2.7969    1.6422   -2.6933 H       1  LIG1        0.0000
     19 H           1.6422    2.7969   -2.6933 H       1  LIG1        0.0000
     20 H           2.6767    2.6767   -0.0648 H       1  LIG1        0.0000
     21 H           0.7995    0.7995   -1.1794 H       1  LIG1        0.0000
     22 H           0.0377    1.1925    1.1925 H       1  LIG1        0.0000
     23 H           1.1925    0.0377    1.1925 H       1  LIG1        0.0000
     24 H           0.2110    3.1519    3.8643 H       1  LIG1        0.0000
     25 H          -0.2672    2.7085    6.1717 H       1  LIG1        0.0000
     26 H           2.6553   -0.2109    6.1506 H       1  LIG1        0.0000
@<TRIPOS>BOND
     1     1     2    1
     2     2     3    2
     3     3     4    1
     4     4     5    1
     5     5     6    2
     6     5     7    1
     7     7     8   ar
     8     8     9   ar
     9     9    10   ar
    10    10    11    1
    11    11    12    1
    12    11    13    1
    13    11    14    1
    14    10    15   ar
    15    15    16   ar
    16    16     7   ar
    17     1    17    1
    18     1    18    1
    19     1    19    1
    20     2    20    1
    21     3    21    1
    22     4    22    1
    23     4    23    1
    24     8    24    1
    25     9    25    1
    26    15    26    1
