@<TRIPOS>MOLECULE
*****
 26 26 0 0 0
SMALL
USER_CHARGES

@<TRIPOS>ATOM
      1 C1          0.6377    2.0166   -2.7039 C.3     1  LIG1        0.0000
      2 C2          0.3452    1.7240   -1.2413 C.2     1  LIG1        0.0000
      3 C3          1.2925    1.2925   -0.4626 C.2     1  LIG1        0.0000
      4 C4          1.0000    1.0000    1.0000 C.3     1  LIG1        0.0000
      5 S5          2.0450    2.0450    2.0450 S.O     1  LIG1        0.0000
      6 O6          3.4788    1.7583    1.7583 O.2     1  LIG1        0.0000
      7 C7          1.7102    1.7102    3.7189 C.3     1  LIG1        0.0000
      8 C8          1.2938    0.4301    4.0711 C.3     1  LIG1        0.0000
      9 C9          1.0232    0.1514    5.4065 C.3     1  LIG1        0.0000
     10 C10         1.1708    1.1453    6.3683 C.3     1  LIG1        0.0000
     11 C11         0.8723    0.8309    7.8272 C.3     1  LIG1        0.0000
     12 F12         0.1654    1.8241    8.3591 F       1  LIG1        0.0000
     13 F13         0.1756   -0.2995    7.9036 F       1  LIG1        0.0000
     14 F14         2.0149    0.6935    8.4939 F       1  LIG1        0.0000
     15 C15         1.5906    2.4051    5.9540 C.3     1  LIG1        0.0000
     16 N16         1.8458    2.6560    4.6614 N.pl3   1  LIG1        0.0000
     17 H          -0.1963    2.3373   -3.1530 H       1  LIG1        0.0000
     18 H           1.3433    2.7222   -2.7681 H       1  LIG1        0.0000
     19 H           0.9584    1.1826   -3.1530 H       1  LIG1        0.0000
     20 H          -0.5760    1.8635   -0.8780 H       1  LIG1        0.0000
     21 H           2.2137    1.1530   -0.8259 H       1  LIG1        0.0000
     22 H           0.0377    1.1925    1.1925 H       1  LIG1        0.0000
     23 H           1.1925    0.0377    1.1925 H       1  LIG1        0.0000
     24 H           1.1906   -0.2793    3.3740 H       1  LIG1        0.0000
     25 H           0.7225   -0.7637    5.6752 H       1  LIG1        0.0000
     26 H           1.7036    3.1339    6.6293 H       1  LIG1        0.0000
@<TRIPOS>BOND
     1     1     2    1
     2     2     3    2
     3     3     4    1
     4     4     5    1
     5     5     6    2
     6     5     7    1
     7     7     8   ar
     8     8     9   ar
     9     9    10   ar
    10    10    11    1
    11    11    12    1
    12    11    13    1
    13    11    14    1
    14    10    15   ar
    15    15    16   ar
    16    16     7   ar
    17     1    17    1
    18     1    18    1
    19     1    19    1
    20     2    20    1
    21     3    21    1
    22     4    22    1
    23     4    23    1
    24     8    24    1
    25     9    25    1
    26    15    26    1
