@<TRIPOS>MOLECULE
*****
 26 26 0 0 0
SMALL
USER_CHARGES

@<TRIPOS>ATOM
      1 C1          0.6377    2.0166   -2.7039 C.3     1  LIG1        0.0000
      2 C2          0.3452    1.7240   -1.2413 C.2     1  LIG1        0.0000
      3 C3          1.2925    1.2925   -0.4626 C.2     1  LIG1        0.0000
      4 C4          1.0000    1.0000    1.0000 C.3     1  LIG1        0.0000
      5 S5          2.0450    2.0450    2.0450 S.O     1  LIG1        0.0000
      6 O6          3.4788    1.7583    1.7583 O.2     1  LIG1        0.0000
      7 C7          1.7102    1.7102    3.7189 C.3     1  LIG1        0.0000
      8 C8          2.4460    0.7179    4.3591 C.3     1  LIG1        0.0000
      9 C9          2.1866    0.4417    5.6972 C.3     1  LIG1        0.0000
     10 C10         1.2039    1.1540    6.3767 C.3     1  LIG1        0.0000
     11 C11         0.9270    0.8448    7.8410 C.3     1  LIG1        0.0000
     12 F12         0.2258    1.8386    8.3791 F       1  LIG1        0.0000
     13 F13         0.2340   -0.2867    7.9318 F       1  LIG1        0.0000
     14 F14         2.0794    0.7123    8.4917 F       1  LIG1        0.0000
     15 C15         0.5025    2.1342    5.6822 C.3     1  LIG1        0.0000
     16 N16         0.7656    2.3859    4.3913 N.pl3   1  LIG1        0.0000
     17 H          -0.1963    2.3373   -3.1530 H       1  LIG1        0.0000
     18 H           1.3433    2.7222   -2.7681 H       1  LIG1        0.0000
     19 H           0.9584    1.1826   -3.1530 H       1  LIG1        0.0000
     20 H          -0.5760    1.8635   -0.8780 H       1  LIG1        0.0000
     21 H           2.2137    1.1530   -0.8259 H       1  LIG1        0.0000
     22 H           0.0377    1.1925    1.1925 H       1  LIG1        0.0000
     23 H           1.1925    0.0377    1.1925 H       1  LIG1        0.0000
     24 H           3.1513    0.2104    3.8641 H       1  LIG1        0.0000
     25 H           2.7066   -0.2690    6.1709 H       1  LIG1        0.0000
     26 H          -0.2078    2.6584    6.1519 H       1  LIG1        0.0000
@<TRIPOS>BOND
     1     1     2    1
     2     2     3    2
     3     3     4    1
     4     4     5    1
     5     5     6    2
     6     5     7    1
     7     7     8   ar
     8     8     9   ar
     9     9    10   ar
    10    10    11    1
    11    11    12    1
    12    11    13    1
    13    11    14    1
    14    10    15   ar
    15    15    16   ar
    16    16     7   ar
    17     1    17    1
    18     1    18    1
    19     1    19    1
    20     2    20    1
    21     3    21    1
    22     4    22    1
    23     4    23    1
    24     8    24    1
    25     9    25    1
    26    15    26    1
