@<TRIPOS>MOLECULE
*****
 26 26 0 0 0
SMALL
USER_CHARGES

@<TRIPOS>ATOM
      1 C1          2.0166    0.6377   -2.7039 C.3     1  LIG1        0.0000
      2 C2          1.7240    0.3452   -1.2413 C.2     1  LIG1        0.0000
      3 C3          1.2925    1.2925   -0.4626 C.2     1  LIG1        0.0000
      4 C4          1.0000    1.0000    1.0000 C.3     1  LIG1        0.0000
      5 S5          2.0450    2.0450    2.0450 S.O     1  LIG1        0.0000
      6 O6          3.4096    2.1326    1.4531 O.2     1  LIG1        0.0000
      7 C7          2.1472    1.3539    3.6382 C.3     1  LIG1        0.0000
      8 C8          3.1688    0.4480    3.9062 C.3     1  LIG1        0.0000
      9 C9          3.2599   -0.1108    5.1764 C.3     1  LIG1        0.0000
     10 C10         2.3382    0.2386    6.1579 C.3     1  LIG1        0.0000
     11 C11         2.4459   -0.3782    7.5451 C.3     1  LIG1        0.0000
     12 F12         1.8353    0.4070    8.4280 F       1  LIG1        0.0000
     13 F13         1.8686   -1.5764    7.5436 F       1  LIG1        0.0000
     14 F14         3.7279   -0.5042    7.8759 F       1  LIG1        0.0000
     15 C15         1.3400    1.1499    5.8289 C.3     1  LIG1        0.0000
     16 N16         1.2670    1.6777    4.5981 N.pl3   1  LIG1        0.0000
     17 H           2.3373   -0.1963   -3.1530 H       1  LIG1        0.0000
     18 H           1.1826    0.9584   -3.1530 H       1  LIG1        0.0000
     19 H           2.7222    1.3433   -2.7681 H       1  LIG1        0.0000
     20 H           1.8635   -0.5760   -0.8780 H       1  LIG1        0.0000
     21 H           1.1530    2.2137   -0.8259 H       1  LIG1        0.0000
     22 H           0.0377    1.1925    1.1925 H       1  LIG1        0.0000
     23 H           1.1925    0.0377    1.1925 H       1  LIG1        0.0000
     24 H           3.8280    0.2023    3.1956 H       1  LIG1        0.0000
     25 H           3.9881   -0.7638    5.3843 H       1  LIG1        0.0000
     26 H           0.6675    1.4152    6.5198 H       1  LIG1        0.0000
@<TRIPOS>BOND
     1     1     2    1
     2     2     3    2
     3     3     4    1
     4     4     5    1
     5     5     6    2
     6     5     7    1
     7     7     8   ar
     8     8     9   ar
     9     9    10   ar
    10    10    11    1
    11    11    12    1
    12    11    13    1
    13    11    14    1
    14    10    15   ar
    15    15    16   ar
    16    16     7   ar
    17     1    17    1
    18     1    18    1
    19     1    19    1
    20     2    20    1
    21     3    21    1
    22     4    22    1
    23     4    23    1
    24     8    24    1
    25     9    25    1
    26    15    26    1
