@<TRIPOS>MOLECULE

  28   29
SMALL
USER_CHARGES
@<TRIPOS>ATOM
   1 C1           4.5467     0.2835     2.2411 C.3          1    LIG   0.0000
   2 C2           3.0267     0.2835     2.2411 C.3          1    LIG   0.0000
   3 C3           2.5200     1.0000     1.0000 C.3          1    LIG   0.0000
   4 C4           1.0000     1.0000     1.0000 C.2          1    LIG   0.0000
   5 C5           0.3500     0.4371     0.0250 C.2          1    LIG   0.0000
   6 C6          -1.1013     0.4371     0.0250 C.ar         1    LIG   0.0000
   7 N7          -1.7082    -0.5968     0.6219 N.ar         1    LIG   0.0000
   8 C8          -3.0477    -0.6403     0.6484 C.ar         1    LIG   0.0000
   9 N9          -3.7731     0.3374     0.0836 N.ar         1    LIG   0.0000
  10 C10         -3.2136     1.3958    -0.5277 C.ar         1    LIG   0.0000
  11 O11         -3.6621     2.4747    -1.1365 O.2          1    LIG   0.0000
  12 N12         -2.7423     3.2231    -1.5707 N.2          1    LIG   0.0000
  13 C13         -1.5980     2.6713    -1.2593 C.2          1    LIG   0.0000
  14 C14         -0.2403     3.2586    -1.6052 C.3          1    LIG   0.0000
  15 C15         -1.8438     1.4600    -0.5654 C.ar         1    LIG   0.0000
  16 H            4.8800    -0.1879     3.0576 H            1    LIG   0.0000
  17 H            4.8800    -0.1879     1.4246 H            1    LIG   0.0000
  18 H            4.8800     1.2263     2.2411 H            1    LIG   0.0000
  19 H            2.6933    -0.6593     2.2411 H            1    LIG   0.0000
  20 H            2.6933     0.7549     3.0576 H            1    LIG   0.0000
  21 H            2.8533     1.9428     1.0000 H            1    LIG   0.0000
  22 H            2.8533     0.5286     0.1835 H            1    LIG   0.0000
  23 H            0.5000     1.4330     1.7500 H            1    LIG   0.0000
  24 H            0.8500     0.0041    -0.7250 H            1    LIG   0.0000
  25 H           -3.5102    -1.4076     1.0927 H            1    LIG   0.0000
  26 H            0.4805     2.6562    -1.2624 H            1    LIG   0.0000
  27 H           -0.1579     3.3456    -2.5980 H            1    LIG   0.0000
  28 H           -0.1499     4.1605    -1.1829 H            1    LIG   0.0000
@<TRIPOS>BOND
   1        1        2 1
   2        2        3 1
   3        3        4 1
   4        4        5 2
   5        5        6 1
   6        6        7 ar
   7        7        8 ar
   8        8        9 ar
   9        9       10 ar
  10       10       11 1
  11       11       12 1
  12       12       13 2
  13       13       14 1
  14       13       15 1
  15       15        6 ar
  16       15       10 ar
  17        1       16 1
  18        1       17 1
  19        1       18 1
  20        2       19 1
  21        2       20 1
  22        3       21 1
  23        3       22 1
  24        4       23 1
  25        5       24 1
  26        8       25 1
  27       14       26 1
  28       14       27 1
  29       14       28 1

@<TRIPOS>MOLECULE

  28   29
SMALL
USER_CHARGES
@<TRIPOS>ATOM
   1 C1           4.5467     0.2835     2.2411 C.3          1    LIG   0.0000
   2 C2           3.0267     0.2835     2.2411 C.3          1    LIG   0.0000
   3 C3           2.5200     1.0000     1.0000 C.3          1    LIG   0.0000
   4 C4           1.0000     1.0000     1.0000 C.2          1    LIG   0.0000
   5 C5           0.3500     0.4371     0.0250 C.2          1    LIG   0.0000
   6 C6          -1.1013     0.4371     0.0250 C.ar         1    LIG   0.0000
   7 N7          -1.7082     1.4709    -0.5719 N.ar         1    LIG   0.0000
   8 C8          -3.0477     1.5145    -0.5984 C.ar         1    LIG   0.0000
   9 N9          -3.7731     0.5368    -0.0336 N.ar         1    LIG   0.0000
  10 C10         -3.2136    -0.5216     0.5777 C.ar         1    LIG   0.0000
  11 O11         -3.6621    -1.6006     1.1865 O.2          1    LIG   0.0000
  12 N12         -2.7423    -2.3490     1.6207 N.2          1    LIG   0.0000
  13 C13         -1.5980    -1.7972     1.3093 C.2          1    LIG   0.0000
  14 C14         -0.2403    -2.3844     1.6552 C.3          1    LIG   0.0000
  15 C15         -1.8438    -0.5858     0.6154 C.ar         1    LIG   0.0000
  16 H            4.8800    -0.1879     3.0576 H            1    LIG   0.0000
  17 H            4.8800    -0.1879     1.4246 H            1    LIG   0.0000
  18 H            4.8800     1.2263     2.2411 H            1    LIG   0.0000
  19 H            2.6933    -0.6593     2.2411 H            1    LIG   0.0000
  20 H            2.6933     0.7549     3.0576 H            1    LIG   0.0000
  21 H            2.8533     1.9428     1.0000 H            1    LIG   0.0000
  22 H            2.8533     0.5286     0.1835 H            1    LIG   0.0000
  23 H            0.5000     1.4330     1.7500 H            1    LIG   0.0000
  24 H            0.8500     0.0041    -0.7250 H            1    LIG   0.0000
  25 H           -3.5102     2.2817    -1.0427 H            1    LIG   0.0000
  26 H            0.4805    -1.7821     1.3124 H            1    LIG   0.0000
  27 H           -0.1579    -2.4714     2.6480 H            1    LIG   0.0000
  28 H           -0.1499    -3.2864     1.2329 H            1    LIG   0.0000
@<TRIPOS>BOND
   1        1        2 1
   2        2        3 1
   3        3        4 1
   4        4        5 2
   5        5        6 1
   6        6        7 ar
   7        7        8 ar
   8        8        9 ar
   9        9       10 ar
  10       10       11 1
  11       11       12 1
  12       12       13 2
  13       13       14 1
  14       13       15 1
  15       15        6 ar
  16       15       10 ar
  17        1       16 1
  18        1       17 1
  19        1       18 1
  20        2       19 1
  21        2       20 1
  22        3       21 1
  23        3       22 1
  24        4       23 1
  25        5       24 1
  26        8       25 1
  27       14       26 1
  28       14       27 1
  29       14       28 1

@<TRIPOS>MOLECULE

  28   29
SMALL
USER_CHARGES
@<TRIPOS>ATOM
   1 C1           4.5467     0.2835     2.2411 C.3          1    LIG   0.0000
   2 C2           3.0267     0.2835     2.2411 C.3          1    LIG   0.0000
   3 C3           2.5200     1.0000     1.0000 C.3          1    LIG   0.0000
   4 C4           1.0000     1.0000     1.0000 C.2          1    LIG   0.0000
   5 C5           0.3500     0.4371     0.0250 C.2          1    LIG   0.0000
   6 C6          -1.1013     0.4371     0.0250 C.ar         1    LIG   0.0000
   7 N7          -1.7082     1.0340     1.0588 N.ar         1    LIG   0.0000
   8 C8          -3.0477     1.0605     1.1024 C.ar         1    LIG   0.0000
   9 N9          -3.7731     0.4957     0.1247 N.ar         1    LIG   0.0000
  10 C10         -3.2136    -0.1156    -0.9337 C.ar         1    LIG   0.0000
  11 O11         -3.6621    -0.7244    -2.0126 O.2          1    LIG   0.0000
  12 N12         -2.7423    -1.1586    -2.7611 N.2          1    LIG   0.0000
  13 C13         -1.5980    -0.8472    -2.2092 C.2          1    LIG   0.0000
  14 C14         -0.2403    -1.1931    -2.7965 C.3          1    LIG   0.0000
  15 C15         -1.8438    -0.1533    -0.9979 C.ar         1    LIG   0.0000
  16 H            4.8800    -0.1879     3.0576 H            1    LIG   0.0000
  17 H            4.8800    -0.1879     1.4246 H            1    LIG   0.0000
  18 H            4.8800     1.2263     2.2411 H            1    LIG   0.0000
  19 H            2.6933    -0.6593     2.2411 H            1    LIG   0.0000
  20 H            2.6933     0.7549     3.0576 H            1    LIG   0.0000
  21 H            2.8533     1.9428     1.0000 H            1    LIG   0.0000
  22 H            2.8533     0.5286     0.1835 H            1    LIG   0.0000
  23 H            0.5000     1.4330     1.7500 H            1    LIG   0.0000
  24 H            0.8500     0.0041    -0.7250 H            1    LIG   0.0000
  25 H           -3.5102     1.5048     1.8697 H            1    LIG   0.0000
  26 H            0.4805    -0.8503    -2.1942 H            1    LIG   0.0000
  27 H           -0.1579    -2.1859    -2.8835 H            1    LIG   0.0000
  28 H           -0.1499    -0.7709    -3.6984 H            1    LIG   0.0000
@<TRIPOS>BOND
   1        1        2 1
   2        2        3 1
   3        3        4 1
   4        4        5 2
   5        5        6 1
   6        6        7 ar
   7        7        8 ar
   8        8        9 ar
   9        9       10 ar
  10       10       11 1
  11       11       12 1
  12       12       13 2
  13       13       14 1
  14       13       15 1
  15       15        6 ar
  16       15       10 ar
  17        1       16 1
  18        1       17 1
  19        1       18 1
  20        2       19 1
  21        2       20 1
  22        3       21 1
  23        3       22 1
  24        4       23 1
  25        5       24 1
  26        8       25 1
  27       14       26 1
  28       14       27 1
  29       14       28 1

@<TRIPOS>MOLECULE

  28   29
SMALL
USER_CHARGES
@<TRIPOS>ATOM
   1 C1           4.5467    -0.3466     1.4901 C.3          1    LIG   0.0000
   2 C2           3.0267    -0.3466     1.4901 C.3          1    LIG   0.0000
   3 C3           2.5200     1.0000     1.0000 C.3          1    LIG   0.0000
   4 C4           1.0000     1.0000     1.0000 C.2          1    LIG   0.0000
   5 C5           0.3500     0.4371     0.0250 C.2          1    LIG   0.0000
   6 C6          -1.1013     0.4371     0.0250 C.ar         1    LIG   0.0000
   7 N7          -1.7082     1.4709     0.6219 N.ar         1    LIG   0.0000
   8 C8          -3.0477     1.5157     0.6464 C.ar         1    LIG   0.0000
   9 N9          -3.7731     0.5377     0.0821 N.ar         1    LIG   0.0000
  10 C10         -3.2136    -0.5209    -0.5289 C.ar         1    LIG   0.0000
  11 O11         -3.6621    -1.5876    -1.1589 O.2          1    LIG   0.0000
  12 N12         -2.7423    -2.3378    -1.5900 N.2          1    LIG   0.0000
  13 C13         -1.5980    -1.7923    -1.2678 C.2          1    LIG   0.0000
  14 C14         -0.2403    -2.3855    -1.6034 C.3          1    LIG   0.0000
  15 C15         -1.8438    -0.5857    -0.5656 C.ar         1    LIG   0.0000
  16 H            4.8800    -1.2326     1.8126 H            1    LIG   0.0000
  17 H            4.8800    -0.1829     0.5617 H            1    LIG   0.0000
  18 H            4.8800     0.3756     2.0962 H            1    LIG   0.0000
  19 H            2.6933    -1.0689     0.8841 H            1    LIG   0.0000
  20 H            2.6933    -0.5104     2.4186 H            1    LIG   0.0000
  21 H            2.8533     1.7222     1.6060 H            1    LIG   0.0000
  22 H            2.8533     1.1637     0.0715 H            1    LIG   0.0000
  23 H            0.5000     1.4330     1.7500 H            1    LIG   0.0000
  24 H            0.8500     0.0041    -0.7250 H            1    LIG   0.0000
  25 H           -3.5102     2.2841     1.0887 H            1    LIG   0.0000
  26 H            0.4805    -1.7874    -1.2531 H            1    LIG   0.0000
  27 H           -0.1579    -3.2887    -1.1823 H            1    LIG   0.0000
  28 H           -0.1499    -2.4708    -2.5956 H            1    LIG   0.0000
@<TRIPOS>BOND
   1        1        2 1
   2        2        3 1
   3        3        4 1
   4        4        5 2
   5        5        6 1
   6        6        7 ar
   7        7        8 ar
   8        8        9 ar
   9        9       10 ar
  10       10       11 1
  11       11       12 1
  12       12       13 2
  13       13       14 1
  14       13       15 1
  15       15        6 ar
  16       15       10 ar
  17        1       16 1
  18        1       17 1
  19        1       18 1
  20        2       19 1
  21        2       20 1
  22        3       21 1
  23        3       22 1
  24        4       23 1
  25        5       24 1
  26        8       25 1
  27       14       26 1
  28       14       27 1
  29       14       28 1

@<TRIPOS>MOLECULE

  28   29
SMALL
USER_CHARGES
@<TRIPOS>ATOM
   1 C1           4.3657    -0.6519     0.8387 C.3          1    LIG   0.0000
   2 C2           3.0267    -0.3466     1.4901 C.3          1    LIG   0.0000
   3 C3           2.5200     1.0000     1.0000 C.3          1    LIG   0.0000
   4 C4           1.0000     1.0000     1.0000 C.2          1    LIG   0.0000
   5 C5           0.3500     0.4371     0.0250 C.2          1    LIG   0.0000
   6 C6          -1.1013     0.4371     0.0250 C.ar         1    LIG   0.0000
   7 N7          -1.7082     0.4371     1.2188 N.ar         1    LIG   0.0000
   8 C8          -3.0477     0.4383     1.2698 C.ar         1    LIG   0.0000
   9 N9          -3.7731     0.4380     0.1407 N.ar         1    LIG   0.0000
  10 C10         -3.2136     0.4378    -1.0816 C.ar         1    LIG   0.0000
  11 O11         -3.6621     0.4500    -2.3204 O.2          1    LIG   0.0000
  12 N12         -2.7423     0.4482    -3.1856 N.2          1    LIG   0.0000
  13 C13         -1.5980     0.4420    -2.5521 C.2          1    LIG   0.0000
  14 C14         -0.2403     0.4360    -3.2336 C.3          1    LIG   0.0000
  15 C15         -1.8438     0.4372    -1.1560 C.ar         1    LIG   0.0000
  16 H            4.6990    -1.5378     1.1612 H            1    LIG   0.0000
  17 H            4.2545    -0.6790    -0.1547 H            1    LIG   0.0000
  18 H            5.0243     0.0604     1.0811 H            1    LIG   0.0000
  19 H            2.3680    -1.0589     1.2477 H            1    LIG   0.0000
  20 H            3.1378    -0.3195     2.4836 H            1    LIG   0.0000
  21 H            2.8533     1.7222     1.6060 H            1    LIG   0.0000
  22 H            2.8533     1.1637     0.0715 H            1    LIG   0.0000
  23 H            0.5000     1.4330     1.7500 H            1    LIG   0.0000
  24 H            0.8500     0.0041    -0.7250 H            1    LIG   0.0000
  25 H           -3.5102     0.4394     2.1564 H            1    LIG   0.0000
  26 H            0.4805     0.4317    -2.5405 H            1    LIG   0.0000
  27 H           -0.1579    -0.3803    -3.8053 H            1    LIG   0.0000
  28 H           -0.1499     1.2527    -3.8036 H            1    LIG   0.0000
@<TRIPOS>BOND
   1        1        2 1
   2        2        3 1
   3        3        4 1
   4        4        5 2
   5        5        6 1
   6        6        7 ar
   7        7        8 ar
   8        8        9 ar
   9        9       10 ar
  10       10       11 1
  11       11       12 1
  12       12       13 2
  13       13       14 1
  14       13       15 1
  15       15        6 ar
  16       15       10 ar
  17        1       16 1
  18        1       17 1
  19        1       18 1
  20        2       19 1
  21        2       20 1
  22        3       21 1
  23        3       22 1
  24        4       23 1
  25        5       24 1
  26        8       25 1
  27       14       26 1
  28       14       27 1
  29       14       28 1

@<TRIPOS>MOLECULE

  28   29
SMALL
USER_CHARGES
@<TRIPOS>ATOM
   1 C1           4.5467     1.2488     2.4113 C.3          1    LIG   0.0000
   2 C2           3.0267     1.2488     2.4113 C.3          1    LIG   0.0000
   3 C3           2.5200     1.0000     1.0000 C.3          1    LIG   0.0000
   4 C4           1.0000     1.0000     1.0000 C.2          1    LIG   0.0000
   5 C5           0.3500     0.4371     0.0250 C.2          1    LIG   0.0000
   6 C6          -1.1013     0.4371     0.0250 C.ar         1    LIG   0.0000
   7 N7          -1.7082     0.4371     1.2188 N.ar         1    LIG   0.0000
   8 C8          -3.0477     0.4383     1.2698 C.ar         1    LIG   0.0000
   9 N9          -3.7731     0.4380     0.1407 N.ar         1    LIG   0.0000
  10 C10         -3.2136     0.4378    -1.0816 C.ar         1    LIG   0.0000
  11 O11         -3.6621     0.4500    -2.3204 O.2          1    LIG   0.0000
  12 N12         -2.7423     0.4482    -3.1856 N.2          1    LIG   0.0000
  13 C13         -1.5980     0.4420    -2.5521 C.2          1    LIG   0.0000
  14 C14         -0.2403     0.4360    -3.2336 C.3          1    LIG   0.0000
  15 C15         -1.8438     0.4372    -1.1560 C.ar         1    LIG   0.0000
  16 H            4.8800     1.4126     3.3398 H            1    LIG   0.0000
  17 H            4.8800     0.3629     2.0888 H            1    LIG   0.0000
  18 H            4.8800     1.9711     1.8053 H            1    LIG   0.0000
  19 H            2.6933     0.5266     3.0173 H            1    LIG   0.0000
  20 H            2.6933     2.1348     2.7338 H            1    LIG   0.0000
  21 H            2.8533     1.7222     0.3940 H            1    LIG   0.0000
  22 H            2.8533     0.1140     0.6775 H            1    LIG   0.0000
  23 H            0.5000     1.4330     1.7500 H            1    LIG   0.0000
  24 H            0.8500     0.0041    -0.7250 H            1    LIG   0.0000
  25 H           -3.5102     0.4394     2.1564 H            1    LIG   0.0000
  26 H            0.4805     0.4317    -2.5405 H            1    LIG   0.0000
  27 H           -0.1579    -0.3803    -3.8053 H            1    LIG   0.0000
  28 H           -0.1499     1.2527    -3.8036 H            1    LIG   0.0000
@<TRIPOS>BOND
   1        1        2 1
   2        2        3 1
   3        3        4 1
   4        4        5 2
   5        5        6 1
   6        6        7 ar
   7        7        8 ar
   8        8        9 ar
   9        9       10 ar
  10       10       11 1
  11       11       12 1
  12       12       13 2
  13       13       14 1
  14       13       15 1
  15       15        6 ar
  16       15       10 ar
  17        1       16 1
  18        1       17 1
  19        1       18 1
  20        2       19 1
  21        2       20 1
  22        3       21 1
  23        3       22 1
  24        4       23 1
  25        5       24 1
  26        8       25 1
  27       14       26 1
  28       14       27 1
  29       14       28 1

@<TRIPOS>MOLECULE

  28   29
SMALL
USER_CHARGES
@<TRIPOS>ATOM
   1 C1           4.4652    -0.4619     0.5099 C.3          1    LIG   0.0000
   2 C2           3.0267    -0.4331     1.0000 C.3          1    LIG   0.0000
   3 C3           2.5200     1.0000     1.0000 C.3          1    LIG   0.0000
   4 C4           1.0000     1.0000     1.0000 C.2          1    LIG   0.0000
   5 C5           0.3500     0.4371     0.0250 C.2          1    LIG   0.0000
   6 C6          -1.1013     0.4371     0.0250 C.ar         1    LIG   0.0000
   7 N7          -1.7082    -0.5968     0.6219 N.ar         1    LIG   0.0000
   8 C8          -3.0477    -0.6403     0.6484 C.ar         1    LIG   0.0000
   9 N9          -3.7731     0.3374     0.0836 N.ar         1    LIG   0.0000
  10 C10         -3.2136     1.3958    -0.5277 C.ar         1    LIG   0.0000
  11 O11         -3.6621     2.4747    -1.1365 O.2          1    LIG   0.0000
  12 N12         -2.7423     3.2231    -1.5707 N.2          1    LIG   0.0000
  13 C13         -1.5980     2.6713    -1.2593 C.2          1    LIG   0.0000
  14 C14         -0.2403     3.2586    -1.6052 C.3          1    LIG   0.0000
  15 C15         -1.8438     1.4600    -0.5654 C.ar         1    LIG   0.0000
  16 H            4.7985    -1.4047     0.5099 H            1    LIG   0.0000
  17 H            4.5084    -0.0930    -0.4186 H            1    LIG   0.0000
  18 H            5.0350     0.0931     1.1159 H            1    LIG   0.0000
  19 H            2.4568    -0.9881     0.3940 H            1    LIG   0.0000
  20 H            2.9834    -0.8019     1.9285 H            1    LIG   0.0000
  21 H            2.8533     1.4714     1.8165 H            1    LIG   0.0000
  22 H            2.8533     1.4714     0.1835 H            1    LIG   0.0000
  23 H            0.5000     1.4330     1.7500 H            1    LIG   0.0000
  24 H            0.8500     0.0041    -0.7250 H            1    LIG   0.0000
  25 H           -3.5102    -1.4076     1.0927 H            1    LIG   0.0000
  26 H            0.4805     2.6562    -1.2624 H            1    LIG   0.0000
  27 H           -0.1579     3.3456    -2.5980 H            1    LIG   0.0000
  28 H           -0.1499     4.1605    -1.1829 H            1    LIG   0.0000
@<TRIPOS>BOND
   1        1        2 1
   2        2        3 1
   3        3        4 1
   4        4        5 2
   5        5        6 1
   6        6        7 ar
   7        7        8 ar
   8        8        9 ar
   9        9       10 ar
  10       10       11 1
  11       11       12 1
  12       12       13 2
  13       13       14 1
  14       13       15 1
  15       15        6 ar
  16       15       10 ar
  17        1       16 1
  18        1       17 1
  19        1       18 1
  20        2       19 1
  21        2       20 1
  22        3       21 1
  23        3       22 1
  24        4       23 1
  25        5       24 1
  26        8       25 1
  27       14       26 1
  28       14       27 1
  29       14       28 1

@<TRIPOS>MOLECULE

  28   29
SMALL
USER_CHARGES
@<TRIPOS>ATOM
   1 C1           4.4652    -0.4619     0.5099 C.3          1    LIG   0.0000
   2 C2           3.0267    -0.4331     1.0000 C.3          1    LIG   0.0000
   3 C3           2.5200     1.0000     1.0000 C.3          1    LIG   0.0000
   4 C4           1.0000     1.0000     1.0000 C.2          1    LIG   0.0000
   5 C5           0.3500     0.4371     0.0250 C.2          1    LIG   0.0000
   6 C6          -1.1013     0.4371     0.0250 C.ar         1    LIG   0.0000
   7 N7          -1.7082     1.4709    -0.5719 N.ar         1    LIG   0.0000
   8 C8          -3.0477     1.5145    -0.5984 C.ar         1    LIG   0.0000
   9 N9          -3.7731     0.5368    -0.0336 N.ar         1    LIG   0.0000
  10 C10         -3.2136    -0.5216     0.5777 C.ar         1    LIG   0.0000
  11 O11         -3.6621    -1.6006     1.1865 O.2          1    LIG   0.0000
  12 N12         -2.7423    -2.3490     1.6207 N.2          1    LIG   0.0000
  13 C13         -1.5980    -1.7972     1.3093 C.2          1    LIG   0.0000
  14 C14         -0.2403    -2.3844     1.6552 C.3          1    LIG   0.0000
  15 C15         -1.8438    -0.5858     0.6154 C.ar         1    LIG   0.0000
  16 H            4.7985    -1.4047     0.5099 H            1    LIG   0.0000
  17 H            4.5084    -0.0930    -0.4186 H            1    LIG   0.0000
  18 H            5.0350     0.0931     1.1159 H            1    LIG   0.0000
  19 H            2.4568    -0.9881     0.3940 H            1    LIG   0.0000
  20 H            2.9834    -0.8019     1.9285 H            1    LIG   0.0000
  21 H            2.8533     1.4714     1.8165 H            1    LIG   0.0000
  22 H            2.8533     1.4714     0.1835 H            1    LIG   0.0000
  23 H            0.5000     1.4330     1.7500 H            1    LIG   0.0000
  24 H            0.8500     0.0041    -0.7250 H            1    LIG   0.0000
  25 H           -3.5102     2.2817    -1.0427 H            1    LIG   0.0000
  26 H            0.4805    -1.7821     1.3124 H            1    LIG   0.0000
  27 H           -0.1579    -2.4714     2.6480 H            1    LIG   0.0000
  28 H           -0.1499    -3.2864     1.2329 H            1    LIG   0.0000
@<TRIPOS>BOND
   1        1        2 1
   2        2        3 1
   3        3        4 1
   4        4        5 2
   5        5        6 1
   6        6        7 ar
   7        7        8 ar
   8        8        9 ar
   9        9       10 ar
  10       10       11 1
  11       11       12 1
  12       12       13 2
  13       13       14 1
  14       13       15 1
  15       15        6 ar
  16       15       10 ar
  17        1       16 1
  18        1       17 1
  19        1       18 1
  20        2       19 1
  21        2       20 1
  22        3       21 1
  23        3       22 1
  24        4       23 1
  25        5       24 1
  26        8       25 1
  27       14       26 1
  28       14       27 1
  29       14       28 1

@<TRIPOS>MOLECULE

  28   29
SMALL
USER_CHARGES
@<TRIPOS>ATOM
   1 C1           4.3657    -0.4971     1.7165 C.3          1    LIG   0.0000
   2 C2           3.0267    -0.4331     1.0000 C.3          1    LIG   0.0000
   3 C3           2.5200     1.0000     1.0000 C.3          1    LIG   0.0000
   4 C4           1.0000     1.0000     1.0000 C.2          1    LIG   0.0000
   5 C5           0.3500     0.4371     0.0250 C.2          1    LIG   0.0000
   6 C6          -1.1013     0.4371     0.0250 C.ar         1    LIG   0.0000
   7 N7          -1.7082    -0.5968     0.6219 N.ar         1    LIG   0.0000
   8 C8          -3.0477    -0.6403     0.6484 C.ar         1    LIG   0.0000
   9 N9          -3.7731     0.3374     0.0836 N.ar         1    LIG   0.0000
  10 C10         -3.2136     1.3958    -0.5277 C.ar         1    LIG   0.0000
  11 O11         -3.6621     2.4747    -1.1365 O.2          1    LIG   0.0000
  12 N12         -2.7423     3.2231    -1.5707 N.2          1    LIG   0.0000
  13 C13         -1.5980     2.6713    -1.2593 C.2          1    LIG   0.0000
  14 C14         -0.2403     3.2586    -1.6052 C.3          1    LIG   0.0000
  15 C15         -1.8438     1.4600    -0.5654 C.ar         1    LIG   0.0000
  16 H            4.6990    -1.4399     1.7165 H            1    LIG   0.0000
  17 H            5.0243     0.0894     1.2451 H            1    LIG   0.0000
  18 H            4.2545    -0.1828     2.6593 H            1    LIG   0.0000
  19 H            3.1378    -0.7473     0.0572 H            1    LIG   0.0000
  20 H            2.3680    -1.0195     1.4714 H            1    LIG   0.0000
  21 H            2.8533     1.4714     1.8165 H            1    LIG   0.0000
  22 H            2.8533     1.4714     0.1835 H            1    LIG   0.0000
  23 H            0.5000     1.4330     1.7500 H            1    LIG   0.0000
  24 H            0.8500     0.0041    -0.7250 H            1    LIG   0.0000
  25 H           -3.5102    -1.4076     1.0927 H            1    LIG   0.0000
  26 H            0.4805     2.6562    -1.2624 H            1    LIG   0.0000
  27 H           -0.1579     3.3456    -2.5980 H            1    LIG   0.0000
  28 H           -0.1499     4.1605    -1.1829 H            1    LIG   0.0000
@<TRIPOS>BOND
   1        1        2 1
   2        2        3 1
   3        3        4 1
   4        4        5 2
   5        5        6 1
   6        6        7 ar
   7        7        8 ar
   8        8        9 ar
   9        9       10 ar
  10       10       11 1
  11       11       12 1
  12       12       13 2
  13       13       14 1
  14       13       15 1
  15       15        6 ar
  16       15       10 ar
  17        1       16 1
  18        1       17 1
  19        1       18 1
  20        2       19 1
  21        2       20 1
  22        3       21 1
  23        3       22 1
  24        4       23 1
  25        5       24 1
  26        8       25 1
  27       14       26 1
  28       14       27 1
  29       14       28 1

@<TRIPOS>MOLECULE

  28   29
SMALL
USER_CHARGES
@<TRIPOS>ATOM
   1 C1           4.3657    -0.4971     1.7165 C.3          1    LIG   0.0000
   2 C2           3.0267    -0.4331     1.0000 C.3          1    LIG   0.0000
   3 C3           2.5200     1.0000     1.0000 C.3          1    LIG   0.0000
   4 C4           1.0000     1.0000     1.0000 C.2          1    LIG   0.0000
   5 C5           0.3500     0.4371     0.0250 C.2          1    LIG   0.0000
   6 C6          -1.1013     0.4371     0.0250 C.ar         1    LIG   0.0000
   7 N7          -1.7082     1.4709    -0.5719 N.ar         1    LIG   0.0000
   8 C8          -3.0477     1.5145    -0.5984 C.ar         1    LIG   0.0000
   9 N9          -3.7731     0.5368    -0.0336 N.ar         1    LIG   0.0000
  10 C10         -3.2136    -0.5216     0.5777 C.ar         1    LIG   0.0000
  11 O11         -3.6621    -1.6006     1.1865 O.2          1    LIG   0.0000
  12 N12         -2.7423    -2.3490     1.6207 N.2          1    LIG   0.0000
  13 C13         -1.5980    -1.7972     1.3093 C.2          1    LIG   0.0000
  14 C14         -0.2403    -2.3844     1.6552 C.3          1    LIG   0.0000
  15 C15         -1.8438    -0.5858     0.6154 C.ar         1    LIG   0.0000
  16 H            4.6990    -1.4399     1.7165 H            1    LIG   0.0000
  17 H            5.0243     0.0894     1.2451 H            1    LIG   0.0000
  18 H            4.2545    -0.1828     2.6593 H            1    LIG   0.0000
  19 H            3.1378    -0.7473     0.0572 H            1    LIG   0.0000
  20 H            2.3680    -1.0195     1.4714 H            1    LIG   0.0000
  21 H            2.8533     1.4714     1.8165 H            1    LIG   0.0000
  22 H            2.8533     1.4714     0.1835 H            1    LIG   0.0000
  23 H            0.5000     1.4330     1.7500 H            1    LIG   0.0000
  24 H            0.8500     0.0041    -0.7250 H            1    LIG   0.0000
  25 H           -3.5102     2.2817    -1.0427 H            1    LIG   0.0000
  26 H            0.4805    -1.7821     1.3124 H            1    LIG   0.0000
  27 H           -0.1579    -2.4714     2.6480 H            1    LIG   0.0000
  28 H           -0.1499    -3.2864     1.2329 H            1    LIG   0.0000
@<TRIPOS>BOND
   1        1        2 1
   2        2        3 1
   3        3        4 1
   4        4        5 2
   5        5        6 1
   6        6        7 ar
   7        7        8 ar
   8        8        9 ar
   9        9       10 ar
  10       10       11 1
  11       11       12 1
  12       12       13 2
  13       13       14 1
  14       13       15 1
  15       15        6 ar
  16       15       10 ar
  17        1       16 1
  18        1       17 1
  19        1       18 1
  20        2       19 1
  21        2       20 1
  22        3       21 1
  23        3       22 1
  24        4       23 1
  25        5       24 1
  26        8       25 1
  27       14       26 1
  28       14       27 1
  29       14       28 1

