@<TRIPOS>MOLECULE
*****
 28 29 0 0 0
SMALL
USER_CHARGES

@<TRIPOS>ATOM
      1 C1          4.3657   -0.4971    1.7165 C.3     1  LIG1        0.0000
      2 C2          3.0267   -0.4331    1.0000 C.3     1  LIG1        0.0000
      3 C3          2.5200    1.0000    1.0000 C.3     1  LIG1        0.0000
      4 C4          1.0000    1.0000    1.0000 C.2     1  LIG1        0.0000
      5 C5          0.3500    0.4371    0.0250 C.2     1  LIG1        0.0000
      6 C6         -1.1013    0.4371    0.0250 C.ar    1  LIG1        0.0000
      7 N7         -1.7082    1.4709   -0.5719 N.ar    1  LIG1        0.0000
      8 C8         -3.0477    1.5145   -0.5984 C.ar    1  LIG1        0.0000
      9 N9         -3.7731    0.5368   -0.0336 N.ar    1  LIG1        0.0000
     10 C10        -3.2136   -0.5216    0.5777 C.ar    1  LIG1        0.0000
     11 O11        -3.6621   -1.6006    1.1865 O.2     1  LIG1        0.0000
     12 N12        -2.7423   -2.3490    1.6207 N.2     1  LIG1        0.0000
     13 C13        -1.5980   -1.7972    1.3093 C.2     1  LIG1        0.0000
     14 C14        -0.2403   -2.3844    1.6552 C.3     1  LIG1        0.0000
     15 C15        -1.8438   -0.5858    0.6154 C.ar    1  LIG1        0.0000
     16 H           4.6990   -1.4399    1.7165 H       1  LIG1        0.0000
     17 H           5.0243    0.0894    1.2451 H       1  LIG1        0.0000
     18 H           4.2545   -0.1828    2.6593 H       1  LIG1        0.0000
     19 H           3.1378   -0.7473    0.0572 H       1  LIG1        0.0000
     20 H           2.3680   -1.0195    1.4714 H       1  LIG1        0.0000
     21 H           2.8533    1.4714    1.8165 H       1  LIG1        0.0000
     22 H           2.8533    1.4714    0.1835 H       1  LIG1        0.0000
     23 H           0.5000    1.4330    1.7500 H       1  LIG1        0.0000
     24 H           0.8500    0.0041   -0.7250 H       1  LIG1        0.0000
     25 H          -3.5102    2.2817   -1.0427 H       1  LIG1        0.0000
     26 H           0.4805   -1.7821    1.3124 H       1  LIG1        0.0000
     27 H          -0.1579   -2.4714    2.6480 H       1  LIG1        0.0000
     28 H          -0.1499   -3.2864    1.2329 H       1  LIG1        0.0000
@<TRIPOS>BOND
     1     1     2    1
     2     2     3    1
     3     3     4    1
     4     4     5    2
     5     5     6    1
     6     6     7   ar
     7     7     8   ar
     8     8     9   ar
     9     9    10   ar
    10    10    11    1
    11    11    12    1
    12    12    13    2
    13    13    14    1
    14    13    15    1
    15    15     6   ar
    16    15    10   ar
    17     1    16    1
    18     1    17    1
    19     1    18    1
    20     2    19    1
    21     2    20    1
    22     3    21    1
    23     3    22    1
    24     4    23    1
    25     5    24    1
    26     8    25    1
    27    14    26    1
    28    14    27    1
    29    14    28    1
