@<TRIPOS>MOLECULE
*****
 28 29 0 0 0
SMALL
USER_CHARGES

@<TRIPOS>ATOM
      1 C1          4.5467    0.2835    2.2411 C.3     1  LIG1        0.0000
      2 C2          3.0267    0.2835    2.2411 C.3     1  LIG1        0.0000
      3 C3          2.5200    1.0000    1.0000 C.3     1  LIG1        0.0000
      4 C4          1.0000    1.0000    1.0000 C.2     1  LIG1        0.0000
      5 C5          0.3500    0.4371    0.0250 C.2     1  LIG1        0.0000
      6 C6         -1.1013    0.4371    0.0250 C.ar    1  LIG1        0.0000
      7 N7         -1.7082   -0.5968    0.6219 N.ar    1  LIG1        0.0000
      8 C8         -3.0477   -0.6403    0.6484 C.ar    1  LIG1        0.0000
      9 N9         -3.7731    0.3374    0.0836 N.ar    1  LIG1        0.0000
     10 C10        -3.2136    1.3958   -0.5277 C.ar    1  LIG1        0.0000
     11 O11        -3.6621    2.4747   -1.1365 O.2     1  LIG1        0.0000
     12 N12        -2.7423    3.2231   -1.5707 N.2     1  LIG1        0.0000
     13 C13        -1.5980    2.6713   -1.2593 C.2     1  LIG1        0.0000
     14 C14        -0.2403    3.2586   -1.6052 C.3     1  LIG1        0.0000
     15 C15        -1.8438    1.4600   -0.5654 C.ar    1  LIG1        0.0000
     16 H           4.8800   -0.1879    3.0576 H       1  LIG1        0.0000
     17 H           4.8800   -0.1879    1.4246 H       1  LIG1        0.0000
     18 H           4.8800    1.2263    2.2411 H       1  LIG1        0.0000
     19 H           2.6933   -0.6593    2.2411 H       1  LIG1        0.0000
     20 H           2.6933    0.7549    3.0576 H       1  LIG1        0.0000
     21 H           2.8533    1.9428    1.0000 H       1  LIG1        0.0000
     22 H           2.8533    0.5286    0.1835 H       1  LIG1        0.0000
     23 H           0.5000    1.4330    1.7500 H       1  LIG1        0.0000
     24 H           0.8500    0.0041   -0.7250 H       1  LIG1        0.0000
     25 H          -3.5102   -1.4076    1.0927 H       1  LIG1        0.0000
     26 H           0.4805    2.6562   -1.2624 H       1  LIG1        0.0000
     27 H          -0.1579    3.3456   -2.5980 H       1  LIG1        0.0000
     28 H          -0.1499    4.1605   -1.1829 H       1  LIG1        0.0000
@<TRIPOS>BOND
     1     1     2    1
     2     2     3    1
     3     3     4    1
     4     4     5    2
     5     5     6    1
     6     6     7   ar
     7     7     8   ar
     8     8     9   ar
     9     9    10   ar
    10    10    11    1
    11    11    12    1
    12    12    13    2
    13    13    14    1
    14    13    15    1
    15    15     6   ar
    16    15    10   ar
    17     1    16    1
    18     1    17    1
    19     1    18    1
    20     2    19    1
    21     2    20    1
    22     3    21    1
    23     3    22    1
    24     4    23    1
    25     5    24    1
    26     8    25    1
    27    14    26    1
    28    14    27    1
    29    14    28    1
