@<TRIPOS>MOLECULE

  63   66
SMALL
USER_CHARGES
@<TRIPOS>ATOM
   1 C1           4.2307     0.5747    -5.9302 C.3          1    LIG   0.0000
   2 C2           3.4303     1.8289    -6.2399 C.2          1    LIG   0.0000
   3 N3           3.7448     2.7514    -7.1172 N.2          1    LIG   0.0000
   4 N4           2.8168     3.6861    -7.1222 N.pl3        1    LIG   0.0000
   5 C5           2.8254     4.8801    -7.9835 C.3          1    LIG   0.0000
   6 C6           1.8409     3.3898    -6.2182 C.2          1    LIG   0.0000
   7 C7           0.6067     4.2260    -5.9210 C.3          1    LIG   0.0000
   8 C8           2.2106     2.2095    -5.6431 C.2          1    LIG   0.0000
   9 C9           1.4888     1.4879    -4.6139 C.2          1    LIG   0.0000
  10 C10          1.6519     1.6501    -3.2221 C.2          1    LIG   0.0000
  11 C11          0.7780     0.7780    -2.6518 C.2          1    LIG   0.0000
  12 C12          0.5773     0.5773    -1.2309 C.2          1    LIG   0.0000
  13 O13         -0.2264    -0.2264    -0.8460 O.2          1    LIG   0.0000
  14 O14          1.2733     1.2733    -0.3664 O.3          1    LIG   0.0000
  15 C15          1.0000     1.0000     1.0000 C.3          1    LIG   0.0000
  16 C16          1.8776     1.8776     1.8776 C.2          1    LIG   0.0000
  17 O17          2.6482     2.6482     1.3755 O.2          1    LIG   0.0000
  18 C18          1.7835     1.7835     3.3217 C.2          1    LIG   0.0000
  19 C19          0.9228     0.9275     4.0457 C.2          1    LIG   0.0000
  20 C20          1.1561     1.1669     5.3666 C.2          1    LIG   0.0000
  21 C21          0.4592     0.4743     6.5275 C.3          1    LIG   0.0000
  22 N22          2.1181     2.1225     5.4750 N.pl3        1    LIG   0.0000
  23 C23          2.6530     2.6580     6.7359 C.3          1    LIG   0.0000
  24 C24          3.8485     1.8272     7.1726 C.3          1    LIG   0.0000
  25 C25          4.4014     2.3807     8.4758 C.ar         1    LIG   0.0000
  26 C26          5.3867     3.3620     8.4368 C.ar         1    LIG   0.0000
  27 C27          5.8901     3.8650     9.6322 C.ar         1    LIG   0.0000
  28 C28          5.4075     3.3870    10.8460 C.ar         1    LIG   0.0000
  29 F29          5.8889     3.8679    11.9891 F            1    LIG   0.0000
  30 C30          4.4227     2.4056    10.8848 C.ar         1    LIG   0.0000
  31 C31          3.9195     1.9024     9.6894 C.ar         1    LIG   0.0000
  32 C32          2.5028     2.5028     4.2262 C.2          1    LIG   0.0000
  33 C33          3.5550     3.5501     3.8982 C.3          1    LIG   0.0000
  34 N34          0.1293     0.1293    -3.6550 N.pl3        1    LIG   0.0000
  35 N35          0.5733     0.5711    -4.8138 N.2          1    LIG   0.0000
  36 H           -0.5732    -0.5717    -3.5326 H            1    LIG   0.0000
  37 H            3.7627     0.0471    -5.2213 H            1    LIG   0.0000
  38 H            4.3146     0.0200    -6.7580 H            1    LIG   0.0000
  39 H            5.1417     0.8319    -5.6076 H            1    LIG   0.0000
  40 H            2.0125     5.4317    -7.7966 H            1    LIG   0.0000
  41 H            3.6454     5.4207    -7.7957 H            1    LIG   0.0000
  42 H            2.8240     4.5989    -8.9432 H            1    LIG   0.0000
  43 H            0.0604     3.7747    -5.2154 H            1    LIG   0.0000
  44 H            0.8865     5.1303    -5.5985 H            1    LIG   0.0000
  45 H            0.0614     4.3230    -6.7536 H            1    LIG   0.0000
  46 H            2.2775     2.2742    -2.7540 H            1    LIG   0.0000
  47 H            1.1925     0.0377     1.1925 H            1    LIG   0.0000
  48 H            0.0377     1.1925     1.1925 H            1    LIG   0.0000
  49 H            0.2699     0.2737     3.6632 H            1    LIG   0.0000
  50 H           -0.2043    -0.1846     6.1729 H            1    LIG   0.0000
  51 H            1.1372    -0.0033     7.0863 H            1    LIG   0.0000
  52 H           -0.0136     1.1553     7.0867 H            1    LIG   0.0000
  53 H            1.9451     2.6199     7.4412 H            1    LIG   0.0000
  54 H            2.9380     3.6070     6.6007 H            1    LIG   0.0000
  55 H            3.5635     0.8783     7.3078 H            1    LIG   0.0000
  56 H            4.5564     1.8653     6.4673 H            1    LIG   0.0000
  57 H            5.7289     3.7015     7.5606 H            1    LIG   0.0000
  58 H            6.5989     4.5703     9.6188 H            1    LIG   0.0000
  59 H            4.0806     2.0660    11.7609 H            1    LIG   0.0000
  60 H            3.2112     1.1967     9.7029 H            1    LIG   0.0000
  61 H            3.6426     3.6351     2.9057 H            1    LIG   0.0000
  62 H            3.2810     4.4305     4.2853 H            1    LIG   0.0000
  63 H            4.4334     3.2735     4.2879 H            1    LIG   0.0000
@<TRIPOS>BOND
   1        1        2 1
   2        2        3 2
   3        3        4 1
   4        4        5 1
   5        4        6 1
   6        6        7 1
   7        6        8 2
   8        8        2 1
   9        8        9 1
  10        9       10 1
  11       10       11 2
  12       11       12 1
  13       12       13 2
  14       12       14 1
  15       14       15 1
  16       15       16 1
  17       16       17 2
  18       16       18 1
  19       18       19 1
  20       19       20 2
  21       20       21 1
  22       20       22 1
  23       22       23 1
  24       23       24 1
  25       24       25 1
  26       25       26 ar
  27       26       27 ar
  28       27       28 ar
  29       28       29 1
  30       28       30 ar
  31       30       31 ar
  32       31       25 ar
  33       22       32 1
  34       32       18 2
  35       32       33 1
  36       11       34 1
  37       34       35 1
  38       35        9 2
  39       34       36 1
  40        1       37 1
  41        1       38 1
  42        1       39 1
  43        5       40 1
  44        5       41 1
  45        5       42 1
  46        7       43 1
  47        7       44 1
  48        7       45 1
  49       10       46 1
  50       15       47 1
  51       15       48 1
  52       19       49 1
  53       21       50 1
  54       21       51 1
  55       21       52 1
  56       23       53 1
  57       23       54 1
  58       24       55 1
  59       24       56 1
  60       26       57 1
  61       27       58 1
  62       30       59 1
  63       31       60 1
  64       33       61 1
  65       33       62 1
  66       33       63 1

@<TRIPOS>MOLECULE

  63   66
SMALL
USER_CHARGES
@<TRIPOS>ATOM
   1 C1          -1.6599     1.9961    -6.5613 C.3          1    LIG   0.0000
   2 C2          -0.7579     0.8434    -6.9704 C.2          1    LIG   0.0000
   3 N3          -0.7868     0.2066    -8.1164 N.2          1    LIG   0.0000
   4 N4           0.1429    -0.7264    -8.1229 N.pl3        1    LIG   0.0000
   5 C5           0.4144    -1.6404    -9.2447 C.3          1    LIG   0.0000
   6 C6           0.8245    -0.7245    -6.9427 C.2          1    LIG   0.0000
   7 C7           1.9627    -1.6566    -6.5602 C.3          1    LIG   0.0000
   8 C8           0.2676     0.2686    -6.1916 C.2          1    LIG   0.0000
   9 C9           0.6545     0.6553    -4.8493 C.2          1    LIG   0.0000
  10 C10          0.1259     0.1276    -3.6526 C.2          1    LIG   0.0000
  11 C11          0.7780     0.7780    -2.6518 C.2          1    LIG   0.0000
  12 C12          0.5773     0.5773    -1.2309 C.2          1    LIG   0.0000
  13 O13         -0.2264    -0.2264    -0.8460 O.2          1    LIG   0.0000
  14 O14          1.2733     1.2733    -0.3664 O.3          1    LIG   0.0000
  15 C15          1.0000     1.0000     1.0000 C.3          1    LIG   0.0000
  16 C16          1.8776     1.8776     1.8776 C.2          1    LIG   0.0000
  17 O17          2.6482     2.6482     1.3755 O.2          1    LIG   0.0000
  18 C18          1.7835     1.7835     3.3217 C.2          1    LIG   0.0000
  19 C19          0.9228     0.9275     4.0457 C.2          1    LIG   0.0000
  20 C20          1.1561     1.1669     5.3666 C.2          1    LIG   0.0000
  21 C21          0.4592     0.4743     6.5275 C.3          1    LIG   0.0000
  22 N22          2.1181     2.1225     5.4750 N.pl3        1    LIG   0.0000
  23 C23          2.6530     2.6580     6.7359 C.3          1    LIG   0.0000
  24 C24          3.8485     1.8272     7.1726 C.3          1    LIG   0.0000
  25 C25          4.4014     2.3807     8.4758 C.ar         1    LIG   0.0000
  26 C26          5.3867     3.3620     8.4368 C.ar         1    LIG   0.0000
  27 C27          5.8901     3.8650     9.6322 C.ar         1    LIG   0.0000
  28 C28          5.4075     3.3870    10.8460 C.ar         1    LIG   0.0000
  29 F29          5.8889     3.8679    11.9891 F            1    LIG   0.0000
  30 C30          4.4227     2.4056    10.8848 C.ar         1    LIG   0.0000
  31 C31          3.9195     1.9024     9.6894 C.ar         1    LIG   0.0000
  32 C32          2.5028     2.5028     4.2262 C.2          1    LIG   0.0000
  33 C33          3.5550     3.5501     3.8982 C.3          1    LIG   0.0000
  34 N34          1.6492     1.6492    -3.2257 N.pl3        1    LIG   0.0000
  35 N35          1.5540     1.5562    -4.5362 N.2          1    LIG   0.0000
  36 H            2.2647     2.2633    -2.7316 H            1    LIG   0.0000
  37 H           -1.4225     2.2930    -5.6364 H            1    LIG   0.0000
  38 H           -1.5369     2.7577    -7.1977 H            1    LIG   0.0000
  39 H           -2.6136     1.6962    -6.5807 H            1    LIG   0.0000
  40 H            1.1665    -2.2528    -9.0012 H            1    LIG   0.0000
  41 H           -0.4045    -2.1798    -9.4408 H            1    LIG   0.0000
  42 H            0.6655    -1.1094   -10.0540 H            1    LIG   0.0000
  43 H            2.2792    -1.4352    -5.6378 H            1    LIG   0.0000
  44 H            1.6408    -2.6030    -6.5840 H            1    LIG   0.0000
  45 H            2.7169    -1.5447    -7.2072 H            1    LIG   0.0000
  46 H           -0.5790    -0.5756    -3.5598 H            1    LIG   0.0000
  47 H            1.1925     0.0377     1.1925 H            1    LIG   0.0000
  48 H            0.0377     1.1925     1.1925 H            1    LIG   0.0000
  49 H            0.2699     0.2737     3.6632 H            1    LIG   0.0000
  50 H           -0.2043    -0.1846     6.1729 H            1    LIG   0.0000
  51 H            1.1372    -0.0033     7.0863 H            1    LIG   0.0000
  52 H           -0.0136     1.1553     7.0867 H            1    LIG   0.0000
  53 H            1.9451     2.6199     7.4412 H            1    LIG   0.0000
  54 H            2.9380     3.6070     6.6007 H            1    LIG   0.0000
  55 H            3.5635     0.8783     7.3078 H            1    LIG   0.0000
  56 H            4.5564     1.8653     6.4673 H            1    LIG   0.0000
  57 H            5.7289     3.7015     7.5606 H            1    LIG   0.0000
  58 H            6.5989     4.5703     9.6188 H            1    LIG   0.0000
  59 H            4.0806     2.0660    11.7609 H            1    LIG   0.0000
  60 H            3.2112     1.1967     9.7029 H            1    LIG   0.0000
  61 H            3.6426     3.6351     2.9057 H            1    LIG   0.0000
  62 H            3.2810     4.4305     4.2853 H            1    LIG   0.0000
  63 H            4.4334     3.2735     4.2879 H            1    LIG   0.0000
@<TRIPOS>BOND
   1        1        2 1
   2        2        3 2
   3        3        4 1
   4        4        5 1
   5        4        6 1
   6        6        7 1
   7        6        8 2
   8        8        2 1
   9        8        9 1
  10        9       10 1
  11       10       11 2
  12       11       12 1
  13       12       13 2
  14       12       14 1
  15       14       15 1
  16       15       16 1
  17       16       17 2
  18       16       18 1
  19       18       19 1
  20       19       20 2
  21       20       21 1
  22       20       22 1
  23       22       23 1
  24       23       24 1
  25       24       25 1
  26       25       26 ar
  27       26       27 ar
  28       27       28 ar
  29       28       29 1
  30       28       30 ar
  31       30       31 ar
  32       31       25 ar
  33       22       32 1
  34       32       18 2
  35       32       33 1
  36       11       34 1
  37       34       35 1
  38       35        9 2
  39       34       36 1
  40        1       37 1
  41        1       38 1
  42        1       39 1
  43        5       40 1
  44        5       41 1
  45        5       42 1
  46        7       43 1
  47        7       44 1
  48        7       45 1
  49       10       46 1
  50       15       47 1
  51       15       48 1
  52       19       49 1
  53       21       50 1
  54       21       51 1
  55       21       52 1
  56       23       53 1
  57       23       54 1
  58       24       55 1
  59       24       56 1
  60       26       57 1
  61       27       58 1
  62       30       59 1
  63       31       60 1
  64       33       61 1
  65       33       62 1
  66       33       63 1

@<TRIPOS>MOLECULE

  63   66
SMALL
USER_CHARGES
@<TRIPOS>ATOM
   1 C1           4.1707     4.1167    -5.2256 C.3          1    LIG   0.0000
   2 C2           3.4045     3.0575    -6.0006 C.2          1    LIG   0.0000
   3 N3           3.7429     2.5515    -7.1622 N.2          1    LIG   0.0000
   4 N4           2.8502     1.6541    -7.5261 N.pl3        1    LIG   0.0000
   5 C5           2.8992     0.8709    -8.7718 C.3          1    LIG   0.0000
   6 C6           1.8729     1.5478    -6.5821 C.2          1    LIG   0.0000
   7 C7           0.6628     0.6297    -6.6401 C.3          1    LIG   0.0000
   8 C8           2.2052     2.4334    -5.5994 C.2          1    LIG   0.0000
   9 C9           1.4649     2.6859    -4.3791 C.2          1    LIG   0.0000
  10 C10          1.6431     2.0154    -3.1508 C.2          1    LIG   0.0000
  11 C11          0.7434     2.5763    -2.2991 C.2          1    LIG   0.0000
  12 C12          0.5457     2.2179    -0.9091 C.2          1    LIG   0.0000
  13 O13         -0.2844     2.7864    -0.2550 O.2          1    LIG   0.0000
  14 O14          1.2733     1.2733    -0.3664 O.3          1    LIG   0.0000
  15 C15          1.0000     1.0000     1.0000 C.3          1    LIG   0.0000
  16 C16          1.8776     1.8776     1.8776 C.2          1    LIG   0.0000
  17 O17          2.6482     2.6482     1.3755 O.2          1    LIG   0.0000
  18 C18          1.7835     1.7835     3.3217 C.2          1    LIG   0.0000
  19 C19          2.5362     2.5315     4.2553 C.2          1    LIG   0.0000
  20 C20          2.1362     2.1254     5.4929 C.2          1    LIG   0.0000
  21 C21          2.6714     2.6563     6.8138 C.3          1    LIG   0.0000
  22 N22          1.1763     1.1719     5.3517 N.pl3        1    LIG   0.0000
  23 C23          0.4875     0.4825     6.4531 C.3          1    LIG   0.0000
  24 C24          1.2618    -0.7701     6.8298 C.3          1    LIG   0.0000
  25 C25          0.5499    -1.4827     7.9680 C.ar         1    LIG   0.0000
  26 C26          0.8746    -1.1628     9.2825 C.ar         1    LIG   0.0000
  27 C27          0.2208    -1.8182    10.3208 C.ar         1    LIG   0.0000
  28 C28         -0.7442    -2.7793    10.0385 C.ar         1    LIG   0.0000
  29 F29         -1.3693    -3.4062    11.0314 F            1    LIG   0.0000
  30 C30         -1.0684    -3.0994     8.7243 C.ar         1    LIG   0.0000
  31 C31         -0.4144    -2.4441     7.6859 C.ar         1    LIG   0.0000
  32 C32          0.9594     0.9594     4.0250 C.2          1    LIG   0.0000
  33 C33         -0.0327    -0.0278     3.4313 C.3          1    LIG   0.0000
  34 N34          0.0639     3.5312    -2.9877 N.pl3        1    LIG   0.0000
  35 N35          0.5134     3.5744    -4.2251 N.2          1    LIG   0.0000
  36 H           -0.6618     4.1090    -2.6142 H            1    LIG   0.0000
  37 H            3.6895     4.3189    -4.3727 H            1    LIG   0.0000
  38 H            5.0889     3.7792    -5.0184 H            1    LIG   0.0000
  39 H            4.2378     4.9490    -5.7759 H            1    LIG   0.0000
  40 H            2.1082     0.2605    -8.8132 H            1    LIG   0.0000
  41 H            2.8832     1.4910    -9.5562 H            1    LIG   0.0000
  42 H            3.7396     0.3293    -8.7922 H            1    LIG   0.0000
  43 H            0.1096     0.7549    -5.8166 H            1    LIG   0.0000
  44 H            0.1147     0.8513    -7.4467 H            1    LIG   0.0000
  45 H            0.9680    -0.3210    -6.6954 H            1    LIG   0.0000
  46 H            2.2933     1.2829    -2.9491 H            1    LIG   0.0000
  47 H            1.1925     0.0377     1.1925 H            1    LIG   0.0000
  48 H            0.0377     1.1925     1.1925 H            1    LIG   0.0000
  49 H            3.2275     3.2237     4.0481 H            1    LIG   0.0000
  50 H            3.3695     3.3499     6.6360 H            1    LIG   0.0000
  51 H            1.9229     3.0634     7.3373 H            1    LIG   0.0000
  52 H            3.0737     1.9048     7.3367 H            1    LIG   0.0000
  53 H           -0.4352     0.2292     6.1626 H            1    LIG   0.0000
  54 H            0.4325     1.0910     7.2447 H            1    LIG   0.0000
  55 H            1.3169    -1.3787     6.0381 H            1    LIG   0.0000
  56 H            2.1846    -0.5169     7.1203 H            1    LIG   0.0000
  57 H            1.5690    -0.4705     9.4784 H            1    LIG   0.0000
  58 H            0.4446    -1.5984    11.2703 H            1    LIG   0.0000
  59 H           -1.7627    -3.7918     8.5284 H            1    LIG   0.0000
  60 H           -0.6378    -2.6645     6.7364 H            1    LIG   0.0000
  61 H            0.0093     0.0169     2.4332 H            1    LIG   0.0000
  62 H            0.1963    -0.9531     3.7335 H            1    LIG   0.0000
  63 H           -0.9564     0.2035     3.7367 H            1    LIG   0.0000
@<TRIPOS>BOND
   1        1        2 1
   2        2        3 2
   3        3        4 1
   4        4        5 1
   5        4        6 1
   6        6        7 1
   7        6        8 2
   8        8        2 1
   9        8        9 1
  10        9       10 1
  11       10       11 2
  12       11       12 1
  13       12       13 2
  14       12       14 1
  15       14       15 1
  16       15       16 1
  17       16       17 2
  18       16       18 1
  19       18       19 1
  20       19       20 2
  21       20       21 1
  22       20       22 1
  23       22       23 1
  24       23       24 1
  25       24       25 1
  26       25       26 ar
  27       26       27 ar
  28       27       28 ar
  29       28       29 1
  30       28       30 ar
  31       30       31 ar
  32       31       25 ar
  33       22       32 1
  34       32       18 2
  35       32       33 1
  36       11       34 1
  37       34       35 1
  38       35        9 2
  39       34       36 1
  40        1       37 1
  41        1       38 1
  42        1       39 1
  43        5       40 1
  44        5       41 1
  45        5       42 1
  46        7       43 1
  47        7       44 1
  48        7       45 1
  49       10       46 1
  50       15       47 1
  51       15       48 1
  52       19       49 1
  53       21       50 1
  54       21       51 1
  55       21       52 1
  56       23       53 1
  57       23       54 1
  58       24       55 1
  59       24       56 1
  60       26       57 1
  61       27       58 1
  62       30       59 1
  63       31       60 1
  64       33       61 1
  65       33       62 1
  66       33       63 1

@<TRIPOS>MOLECULE

  63   66
SMALL
USER_CHARGES
@<TRIPOS>ATOM
   1 C1           4.2307     0.5747    -5.9302 C.3          1    LIG   0.0000
   2 C2           3.4303     1.8289    -6.2399 C.2          1    LIG   0.0000
   3 N3           3.7448     2.7514    -7.1172 N.2          1    LIG   0.0000
   4 N4           2.8168     3.6861    -7.1222 N.pl3        1    LIG   0.0000
   5 C5           2.8254     4.8801    -7.9835 C.3          1    LIG   0.0000
   6 C6           1.8409     3.3898    -6.2182 C.2          1    LIG   0.0000
   7 C7           0.6067     4.2260    -5.9210 C.3          1    LIG   0.0000
   8 C8           2.2106     2.2095    -5.6431 C.2          1    LIG   0.0000
   9 C9           1.4888     1.4879    -4.6139 C.2          1    LIG   0.0000
  10 C10          1.6519     1.6501    -3.2221 C.2          1    LIG   0.0000
  11 C11          0.7780     0.7780    -2.6518 C.2          1    LIG   0.0000
  12 C12          0.5773     0.5773    -1.2309 C.2          1    LIG   0.0000
  13 O13         -0.2264    -0.2264    -0.8460 O.2          1    LIG   0.0000
  14 O14          1.2733     1.2733    -0.3664 O.3          1    LIG   0.0000
  15 C15          1.0000     1.0000     1.0000 C.3          1    LIG   0.0000
  16 C16          1.8776     1.8776     1.8776 C.2          1    LIG   0.0000
  17 O17          1.4891     2.9588     2.2240 O.2          1    LIG   0.0000
  18 C18          3.1843     1.4081     2.2962 C.2          1    LIG   0.0000
  19 C19          3.7656     0.1623     1.9681 C.2          1    LIG   0.0000
  20 C20          4.9878     0.1322     2.5694 C.2          1    LIG   0.0000
  21 C21          5.9818    -1.0166     2.4957 C.3          1    LIG   0.0000
  22 N22          5.1741     1.3004     3.2411 N.pl3        1    LIG   0.0000
  23 C23          6.3700     1.6584     4.0186 C.3          1    LIG   0.0000
  24 C24          7.3690     2.3636     3.1157 C.3          1    LIG   0.0000
  25 C25          8.6050     2.7336     3.9193 C.ar         1    LIG   0.0000
  26 C26          8.6585     3.9676     4.5595 C.ar         1    LIG   0.0000
  27 C27          9.7921     4.3019     5.2932 C.ar         1    LIG   0.0000
  28 C28         10.8533     3.4070     5.3803 C.ar         1    LIG   0.0000
  29 F29         11.9374     3.7267     6.0818 F            1    LIG   0.0000
  30 C30         10.7998     2.1735     4.7398 C.ar         1    LIG   0.0000
  31 C31          9.6663     1.8392     4.0059 C.ar         1    LIG   0.0000
  32 C32          4.0722     2.0823     3.0773 C.2          1    LIG   0.0000
  33 C33          3.8687     3.4696     3.6649 C.3          1    LIG   0.0000
  34 N34          0.1293     0.1293    -3.6550 N.pl3        1    LIG   0.0000
  35 N35          0.5733     0.5711    -4.8138 N.2          1    LIG   0.0000
  36 H           -0.5732    -0.5717    -3.5326 H            1    LIG   0.0000
  37 H            3.7627     0.0471    -5.2213 H            1    LIG   0.0000
  38 H            4.3146     0.0200    -6.7580 H            1    LIG   0.0000
  39 H            5.1417     0.8319    -5.6076 H            1    LIG   0.0000
  40 H            2.0125     5.4317    -7.7966 H            1    LIG   0.0000
  41 H            3.6454     5.4207    -7.7957 H            1    LIG   0.0000
  42 H            2.8240     4.5989    -8.9432 H            1    LIG   0.0000
  43 H            0.0604     3.7747    -5.2154 H            1    LIG   0.0000
  44 H            0.8865     5.1303    -5.5985 H            1    LIG   0.0000
  45 H            0.0614     4.3230    -6.7536 H            1    LIG   0.0000
  46 H            2.2775     2.2742    -2.7540 H            1    LIG   0.0000
  47 H            1.1925     0.0377     1.1925 H            1    LIG   0.0000
  48 H            0.0377     1.1925     1.1925 H            1    LIG   0.0000
  49 H            3.3592    -0.5568     1.4044 H            1    LIG   0.0000
  50 H            5.5985    -1.7538     1.9394 H            1    LIG   0.0000
  51 H            6.8332    -0.6946     2.0816 H            1    LIG   0.0000
  52 H            6.1673    -1.3566     3.4176 H            1    LIG   0.0000
  53 H            6.7856     0.8289     4.3917 H            1    LIG   0.0000
  54 H            6.1104     2.2673     4.7681 H            1    LIG   0.0000
  55 H            7.6286     1.7547     2.3662 H            1    LIG   0.0000
  56 H            6.9534     3.1931     2.7426 H            1    LIG   0.0000
  57 H            7.8917     4.6061     4.4932 H            1    LIG   0.0000
  58 H            9.8441     5.1858     5.7581 H            1    LIG   0.0000
  59 H           11.5666     1.5349     4.8060 H            1    LIG   0.0000
  60 H            9.6146     0.9556     3.5405 H            1    LIG   0.0000
  61 H            2.9733     3.8199     3.3901 H            1    LIG   0.0000
  62 H            3.9151     3.4191     4.6626 H            1    LIG   0.0000
  63 H            4.5839     4.0823     3.3286 H            1    LIG   0.0000
@<TRIPOS>BOND
   1        1        2 1
   2        2        3 2
   3        3        4 1
   4        4        5 1
   5        4        6 1
   6        6        7 1
   7        6        8 2
   8        8        2 1
   9        8        9 1
  10        9       10 1
  11       10       11 2
  12       11       12 1
  13       12       13 2
  14       12       14 1
  15       14       15 1
  16       15       16 1
  17       16       17 2
  18       16       18 1
  19       18       19 1
  20       19       20 2
  21       20       21 1
  22       20       22 1
  23       22       23 1
  24       23       24 1
  25       24       25 1
  26       25       26 ar
  27       26       27 ar
  28       27       28 ar
  29       28       29 1
  30       28       30 ar
  31       30       31 ar
  32       31       25 ar
  33       22       32 1
  34       32       18 2
  35       32       33 1
  36       11       34 1
  37       34       35 1
  38       35        9 2
  39       34       36 1
  40        1       37 1
  41        1       38 1
  42        1       39 1
  43        5       40 1
  44        5       41 1
  45        5       42 1
  46        7       43 1
  47        7       44 1
  48        7       45 1
  49       10       46 1
  50       15       47 1
  51       15       48 1
  52       19       49 1
  53       21       50 1
  54       21       51 1
  55       21       52 1
  56       23       53 1
  57       23       54 1
  58       24       55 1
  59       24       56 1
  60       26       57 1
  61       27       58 1
  62       30       59 1
  63       31       60 1
  64       33       61 1
  65       33       62 1
  66       33       63 1

@<TRIPOS>MOLECULE

  63   66
SMALL
USER_CHARGES
@<TRIPOS>ATOM
   1 C1          -1.6599     1.9961    -6.5613 C.3          1    LIG   0.0000
   2 C2          -0.7579     0.8434    -6.9704 C.2          1    LIG   0.0000
   3 N3          -0.7868     0.2066    -8.1164 N.2          1    LIG   0.0000
   4 N4           0.1429    -0.7264    -8.1229 N.pl3        1    LIG   0.0000
   5 C5           0.4144    -1.6404    -9.2447 C.3          1    LIG   0.0000
   6 C6           0.8245    -0.7245    -6.9427 C.2          1    LIG   0.0000
   7 C7           1.9627    -1.6566    -6.5602 C.3          1    LIG   0.0000
   8 C8           0.2676     0.2686    -6.1916 C.2          1    LIG   0.0000
   9 C9           0.6545     0.6553    -4.8493 C.2          1    LIG   0.0000
  10 C10          0.1259     0.1276    -3.6526 C.2          1    LIG   0.0000
  11 C11          0.7780     0.7780    -2.6518 C.2          1    LIG   0.0000
  12 C12          0.5773     0.5773    -1.2309 C.2          1    LIG   0.0000
  13 O13         -0.2264    -0.2264    -0.8460 O.2          1    LIG   0.0000
  14 O14          1.2733     1.2733    -0.3664 O.3          1    LIG   0.0000
  15 C15          1.0000     1.0000     1.0000 C.3          1    LIG   0.0000
  16 C16          1.8776     1.8776     1.8776 C.2          1    LIG   0.0000
  17 O17          1.4891     2.9588     2.2240 O.2          1    LIG   0.0000
  18 C18          3.1843     1.4081     2.2962 C.2          1    LIG   0.0000
  19 C19          3.7656     0.1623     1.9681 C.2          1    LIG   0.0000
  20 C20          4.9878     0.1322     2.5694 C.2          1    LIG   0.0000
  21 C21          5.9818    -1.0166     2.4957 C.3          1    LIG   0.0000
  22 N22          5.1741     1.3004     3.2411 N.pl3        1    LIG   0.0000
  23 C23          6.3700     1.6584     4.0186 C.3          1    LIG   0.0000
  24 C24          7.3690     2.3636     3.1157 C.3          1    LIG   0.0000
  25 C25          8.6050     2.7336     3.9193 C.ar         1    LIG   0.0000
  26 C26          8.6585     3.9676     4.5595 C.ar         1    LIG   0.0000
  27 C27          9.7921     4.3019     5.2932 C.ar         1    LIG   0.0000
  28 C28         10.8533     3.4070     5.3803 C.ar         1    LIG   0.0000
  29 F29         11.9374     3.7267     6.0818 F            1    LIG   0.0000
  30 C30         10.7998     2.1735     4.7398 C.ar         1    LIG   0.0000
  31 C31          9.6663     1.8392     4.0059 C.ar         1    LIG   0.0000
  32 C32          4.0722     2.0823     3.0773 C.2          1    LIG   0.0000
  33 C33          3.8687     3.4696     3.6649 C.3          1    LIG   0.0000
  34 N34          1.6492     1.6492    -3.2257 N.pl3        1    LIG   0.0000
  35 N35          1.5540     1.5562    -4.5362 N.2          1    LIG   0.0000
  36 H            2.2647     2.2633    -2.7316 H            1    LIG   0.0000
  37 H           -1.4225     2.2930    -5.6364 H            1    LIG   0.0000
  38 H           -1.5369     2.7577    -7.1977 H            1    LIG   0.0000
  39 H           -2.6136     1.6962    -6.5807 H            1    LIG   0.0000
  40 H            1.1665    -2.2528    -9.0012 H            1    LIG   0.0000
  41 H           -0.4045    -2.1798    -9.4408 H            1    LIG   0.0000
  42 H            0.6655    -1.1094   -10.0540 H            1    LIG   0.0000
  43 H            2.2792    -1.4352    -5.6378 H            1    LIG   0.0000
  44 H            1.6408    -2.6030    -6.5840 H            1    LIG   0.0000
  45 H            2.7169    -1.5447    -7.2072 H            1    LIG   0.0000
  46 H           -0.5790    -0.5756    -3.5598 H            1    LIG   0.0000
  47 H            1.1925     0.0377     1.1925 H            1    LIG   0.0000
  48 H            0.0377     1.1925     1.1925 H            1    LIG   0.0000
  49 H            3.3592    -0.5568     1.4044 H            1    LIG   0.0000
  50 H            5.5985    -1.7538     1.9394 H            1    LIG   0.0000
  51 H            6.8332    -0.6946     2.0816 H            1    LIG   0.0000
  52 H            6.1673    -1.3566     3.4176 H            1    LIG   0.0000
  53 H            6.7856     0.8289     4.3917 H            1    LIG   0.0000
  54 H            6.1104     2.2673     4.7681 H            1    LIG   0.0000
  55 H            7.6286     1.7547     2.3662 H            1    LIG   0.0000
  56 H            6.9534     3.1931     2.7426 H            1    LIG   0.0000
  57 H            7.8917     4.6061     4.4932 H            1    LIG   0.0000
  58 H            9.8441     5.1858     5.7581 H            1    LIG   0.0000
  59 H           11.5666     1.5349     4.8060 H            1    LIG   0.0000
  60 H            9.6146     0.9556     3.5405 H            1    LIG   0.0000
  61 H            2.9733     3.8199     3.3901 H            1    LIG   0.0000
  62 H            3.9151     3.4191     4.6626 H            1    LIG   0.0000
  63 H            4.5839     4.0823     3.3286 H            1    LIG   0.0000
@<TRIPOS>BOND
   1        1        2 1
   2        2        3 2
   3        3        4 1
   4        4        5 1
   5        4        6 1
   6        6        7 1
   7        6        8 2
   8        8        2 1
   9        8        9 1
  10        9       10 1
  11       10       11 2
  12       11       12 1
  13       12       13 2
  14       12       14 1
  15       14       15 1
  16       15       16 1
  17       16       17 2
  18       16       18 1
  19       18       19 1
  20       19       20 2
  21       20       21 1
  22       20       22 1
  23       22       23 1
  24       23       24 1
  25       24       25 1
  26       25       26 ar
  27       26       27 ar
  28       27       28 ar
  29       28       29 1
  30       28       30 ar
  31       30       31 ar
  32       31       25 ar
  33       22       32 1
  34       32       18 2
  35       32       33 1
  36       11       34 1
  37       34       35 1
  38       35        9 2
  39       34       36 1
  40        1       37 1
  41        1       38 1
  42        1       39 1
  43        5       40 1
  44        5       41 1
  45        5       42 1
  46        7       43 1
  47        7       44 1
  48        7       45 1
  49       10       46 1
  50       15       47 1
  51       15       48 1
  52       19       49 1
  53       21       50 1
  54       21       51 1
  55       21       52 1
  56       23       53 1
  57       23       54 1
  58       24       55 1
  59       24       56 1
  60       26       57 1
  61       27       58 1
  62       30       59 1
  63       31       60 1
  64       33       61 1
  65       33       62 1
  66       33       63 1

@<TRIPOS>MOLECULE

  63   66
SMALL
USER_CHARGES
@<TRIPOS>ATOM
   1 C1           0.6443     0.6122    -6.6400 C.3          1    LIG   0.0000
   2 C2           1.8657     1.5162    -6.6153 C.2          1    LIG   0.0000
   3 N3           2.7929     1.5906    -7.5397 N.2          1    LIG   0.0000
   4 N4           3.6924     2.4858    -7.1872 N.pl3        1    LIG   0.0000
   5 C5           4.8797     2.8474    -7.9792 C.3          1    LIG   0.0000
   6 C6           3.3668     3.0363    -5.9837 C.2          1    LIG   0.0000
   7 C7           4.1588     4.0970    -5.2364 C.3          1    LIG   0.0000
   8 C8           2.2052     2.4334    -5.5994 C.2          1    LIG   0.0000
   9 C9           1.4649     2.6859    -4.3791 C.2          1    LIG   0.0000
  10 C10          1.6431     2.0154    -3.1508 C.2          1    LIG   0.0000
  11 C11          0.7434     2.5763    -2.2991 C.2          1    LIG   0.0000
  12 C12          0.5457     2.2179    -0.9091 C.2          1    LIG   0.0000
  13 O13         -0.2844     2.7864    -0.2550 O.2          1    LIG   0.0000
  14 O14          1.2733     1.2733    -0.3664 O.3          1    LIG   0.0000
  15 C15          1.0000     1.0000     1.0000 C.3          1    LIG   0.0000
  16 C16          1.8776     1.8776     1.8776 C.2          1    LIG   0.0000
  17 O17          1.4891     2.9588     2.2240 O.2          1    LIG   0.0000
  18 C18          3.1843     1.4081     2.2962 C.2          1    LIG   0.0000
  19 C19          3.7656     0.1623     1.9681 C.2          1    LIG   0.0000
  20 C20          4.9878     0.1322     2.5694 C.2          1    LIG   0.0000
  21 C21          5.9818    -1.0166     2.4957 C.3          1    LIG   0.0000
  22 N22          5.1741     1.3004     3.2411 N.pl3        1    LIG   0.0000
  23 C23          6.3700     1.6584     4.0186 C.3          1    LIG   0.0000
  24 C24          6.1951     1.1998     5.4571 C.3          1    LIG   0.0000
  25 C25          7.4311     1.5697     6.2607 C.ar         1    LIG   0.0000
  26 C26          8.4873     0.6679     6.3420 C.ar         1    LIG   0.0000
  27 C27          9.6160     1.0107     7.0792 C.ar         1    LIG   0.0000
  28 C28          9.6788     2.2421     7.7229 C.ar         1    LIG   0.0000
  29 F29         10.7582     2.5700     8.4280 F            1    LIG   0.0000
  30 C30          8.6226     3.1435     7.6419 C.ar         1    LIG   0.0000
  31 C31          7.4937     2.8005     6.9049 C.ar         1    LIG   0.0000
  32 C32          4.0722     2.0823     3.0773 C.2          1    LIG   0.0000
  33 C33          3.8687     3.4696     3.6649 C.3          1    LIG   0.0000
  34 N34          0.0639     3.5312    -2.9877 N.pl3        1    LIG   0.0000
  35 N35          0.5134     3.5744    -4.2251 N.2          1    LIG   0.0000
  36 H           -0.6618     4.1090    -2.6142 H            1    LIG   0.0000
  37 H            0.1049     0.7580    -5.8107 H            1    LIG   0.0000
  38 H            0.0870     0.8267    -7.4422 H            1    LIG   0.0000
  39 H            0.9374    -0.3429    -6.6835 H            1    LIG   0.0000
  40 H            5.4022     3.5493    -7.4952 H            1    LIG   0.0000
  41 H            5.4517     2.0377    -8.1111 H            1    LIG   0.0000
  42 H            4.5917     3.2006    -8.8693 H            1    LIG   0.0000
  43 H            3.6928     4.3193    -4.3800 H            1    LIG   0.0000
  44 H            5.0752     3.7498    -5.0369 H            1    LIG   0.0000
  45 H            4.2295     4.9195    -5.8007 H            1    LIG   0.0000
  46 H            2.2933     1.2829    -2.9491 H            1    LIG   0.0000
  47 H            1.1925     0.0377     1.1925 H            1    LIG   0.0000
  48 H            0.0377     1.1925     1.1925 H            1    LIG   0.0000
  49 H            3.3592    -0.5568     1.4044 H            1    LIG   0.0000
  50 H            5.5985    -1.7538     1.9394 H            1    LIG   0.0000
  51 H            6.8332    -0.6946     2.0816 H            1    LIG   0.0000
  52 H            6.1673    -1.3566     3.4176 H            1    LIG   0.0000
  53 H            6.4965     2.6501     3.9979 H            1    LIG   0.0000
  54 H            7.1718     1.2117     3.6215 H            1    LIG   0.0000
  55 H            5.3933     1.6464     5.8542 H            1    LIG   0.0000
  56 H            6.0686     0.2080     5.4778 H            1    LIG   0.0000
  57 H            8.4357    -0.2156     5.8763 H            1    LIG   0.0000
  58 H           10.3824     0.3718     7.1464 H            1    LIG   0.0000
  59 H            8.6741     4.0269     8.1077 H            1    LIG   0.0000
  60 H            6.7271     3.4392     6.8383 H            1    LIG   0.0000
  61 H            2.9733     3.8199     3.3901 H            1    LIG   0.0000
  62 H            3.9151     3.4191     4.6626 H            1    LIG   0.0000
  63 H            4.5839     4.0823     3.3286 H            1    LIG   0.0000
@<TRIPOS>BOND
   1        1        2 1
   2        2        3 2
   3        3        4 1
   4        4        5 1
   5        4        6 1
   6        6        7 1
   7        6        8 2
   8        8        2 1
   9        8        9 1
  10        9       10 1
  11       10       11 2
  12       11       12 1
  13       12       13 2
  14       12       14 1
  15       14       15 1
  16       15       16 1
  17       16       17 2
  18       16       18 1
  19       18       19 1
  20       19       20 2
  21       20       21 1
  22       20       22 1
  23       22       23 1
  24       23       24 1
  25       24       25 1
  26       25       26 ar
  27       26       27 ar
  28       27       28 ar
  29       28       29 1
  30       28       30 ar
  31       30       31 ar
  32       31       25 ar
  33       22       32 1
  34       32       18 2
  35       32       33 1
  36       11       34 1
  37       34       35 1
  38       35        9 2
  39       34       36 1
  40        1       37 1
  41        1       38 1
  42        1       39 1
  43        5       40 1
  44        5       41 1
  45        5       42 1
  46        7       43 1
  47        7       44 1
  48        7       45 1
  49       10       46 1
  50       15       47 1
  51       15       48 1
  52       19       49 1
  53       21       50 1
  54       21       51 1
  55       21       52 1
  56       23       53 1
  57       23       54 1
  58       24       55 1
  59       24       56 1
  60       26       57 1
  61       27       58 1
  62       30       59 1
  63       31       60 1
  64       33       61 1
  65       33       62 1
  66       33       63 1

@<TRIPOS>MOLECULE

  63   66
SMALL
USER_CHARGES
@<TRIPOS>ATOM
   1 C1           4.2307     0.5747    -5.9302 C.3          1    LIG   0.0000
   2 C2           3.4303     1.8289    -6.2399 C.2          1    LIG   0.0000
   3 N3           3.7448     2.7514    -7.1172 N.2          1    LIG   0.0000
   4 N4           2.8168     3.6861    -7.1222 N.pl3        1    LIG   0.0000
   5 C5           2.8254     4.8801    -7.9835 C.3          1    LIG   0.0000
   6 C6           1.8409     3.3898    -6.2182 C.2          1    LIG   0.0000
   7 C7           0.6067     4.2260    -5.9210 C.3          1    LIG   0.0000
   8 C8           2.2106     2.2095    -5.6431 C.2          1    LIG   0.0000
   9 C9           1.4888     1.4879    -4.6139 C.2          1    LIG   0.0000
  10 C10          1.6519     1.6501    -3.2221 C.2          1    LIG   0.0000
  11 C11          0.7780     0.7780    -2.6518 C.2          1    LIG   0.0000
  12 C12          0.5773     0.5773    -1.2309 C.2          1    LIG   0.0000
  13 O13         -0.2264    -0.2264    -0.8460 O.2          1    LIG   0.0000
  14 O14          1.2733     1.2733    -0.3664 O.3          1    LIG   0.0000
  15 C15          1.0000     1.0000     1.0000 C.3          1    LIG   0.0000
  16 C16          1.8776     1.8776     1.8776 C.2          1    LIG   0.0000
  17 O17          1.4891     2.9588     2.2240 O.2          1    LIG   0.0000
  18 C18          3.1843     1.4081     2.2962 C.2          1    LIG   0.0000
  19 C19          4.1029     2.1151     3.1049 C.2          1    LIG   0.0000
  20 C20          5.1957     1.3135     3.2452 C.2          1    LIG   0.0000
  21 C21          6.4475     1.6556     4.0385 C.3          1    LIG   0.0000
  22 N22          4.9799     0.1560     2.5641 N.pl3        1    LIG   0.0000
  23 C23          5.9215    -0.9699     2.4714 C.3          1    LIG   0.0000
  24 C24          5.6636    -1.9413     3.6117 C.3          1    LIG   0.0000
  25 C25          6.6368    -3.1049     3.5159 C.ar         1    LIG   0.0000
  26 C26          6.2834    -4.2312     2.7796 C.ar         1    LIG   0.0000
  27 C27          7.1771    -5.2939     2.6954 C.ar         1    LIG   0.0000
  28 C28          8.4064    -5.2217     3.3422 C.ar         1    LIG   0.0000
  29 F29          9.2611    -6.2380     3.2618 F            1    LIG   0.0000
  30 C30          8.7594    -4.0959     4.0786 C.ar         1    LIG   0.0000
  31 C31          7.8655    -3.0332     4.1630 C.ar         1    LIG   0.0000
  32 C32          3.7512     0.2113     1.9813 C.2          1    LIG   0.0000
  33 C33          3.1207    -0.8764     1.1265 C.3          1    LIG   0.0000
  34 N34          0.1293     0.1293    -3.6550 N.pl3        1    LIG   0.0000
  35 N35          0.5733     0.5711    -4.8138 N.2          1    LIG   0.0000
  36 H           -0.5732    -0.5717    -3.5326 H            1    LIG   0.0000
  37 H            3.7627     0.0471    -5.2213 H            1    LIG   0.0000
  38 H            4.3146     0.0200    -6.7580 H            1    LIG   0.0000
  39 H            5.1417     0.8319    -5.6076 H            1    LIG   0.0000
  40 H            2.0125     5.4317    -7.7966 H            1    LIG   0.0000
  41 H            3.6454     5.4207    -7.7957 H            1    LIG   0.0000
  42 H            2.8240     4.5989    -8.9432 H            1    LIG   0.0000
  43 H            0.0604     3.7747    -5.2154 H            1    LIG   0.0000
  44 H            0.8865     5.1303    -5.5985 H            1    LIG   0.0000
  45 H            0.0614     4.3230    -6.7536 H            1    LIG   0.0000
  46 H            2.2775     2.2742    -2.7540 H            1    LIG   0.0000
  47 H            1.1925     0.0377     1.1925 H            1    LIG   0.0000
  48 H            0.0377     1.1925     1.1925 H            1    LIG   0.0000
  49 H            3.9757     3.0260     3.4976 H            1    LIG   0.0000
  50 H            6.3491     2.5659     4.4405 H            1    LIG   0.0000
  51 H            6.5754     0.9818     4.7663 H            1    LIG   0.0000
  52 H            7.2412     1.6438     3.4302 H            1    LIG   0.0000
  53 H            6.8587    -0.6264     2.5317 H            1    LIG   0.0000
  54 H            5.7943    -1.4398     1.5979 H            1    LIG   0.0000
  55 H            5.7908    -1.4714     4.4852 H            1    LIG   0.0000
  56 H            4.7263    -2.2848     3.5514 H            1    LIG   0.0000
  57 H            5.3981    -4.2763     2.3167 H            1    LIG   0.0000
  58 H            6.9358    -6.1097     2.1699 H            1    LIG   0.0000
  59 H            9.6446    -4.0508     4.5416 H            1    LIG   0.0000
  60 H            8.1067    -2.2177     4.6891 H            1    LIG   0.0000
  61 H            2.2149    -0.5796     0.8242 H            1    LIG   0.0000
  62 H            3.6981    -1.0499     0.3286 H            1    LIG   0.0000
  63 H            3.0345    -1.7150     1.6643 H            1    LIG   0.0000
@<TRIPOS>BOND
   1        1        2 1
   2        2        3 2
   3        3        4 1
   4        4        5 1
   5        4        6 1
   6        6        7 1
   7        6        8 2
   8        8        2 1
   9        8        9 1
  10        9       10 1
  11       10       11 2
  12       11       12 1
  13       12       13 2
  14       12       14 1
  15       14       15 1
  16       15       16 1
  17       16       17 2
  18       16       18 1
  19       18       19 1
  20       19       20 2
  21       20       21 1
  22       20       22 1
  23       22       23 1
  24       23       24 1
  25       24       25 1
  26       25       26 ar
  27       26       27 ar
  28       27       28 ar
  29       28       29 1
  30       28       30 ar
  31       30       31 ar
  32       31       25 ar
  33       22       32 1
  34       32       18 2
  35       32       33 1
  36       11       34 1
  37       34       35 1
  38       35        9 2
  39       34       36 1
  40        1       37 1
  41        1       38 1
  42        1       39 1
  43        5       40 1
  44        5       41 1
  45        5       42 1
  46        7       43 1
  47        7       44 1
  48        7       45 1
  49       10       46 1
  50       15       47 1
  51       15       48 1
  52       19       49 1
  53       21       50 1
  54       21       51 1
  55       21       52 1
  56       23       53 1
  57       23       54 1
  58       24       55 1
  59       24       56 1
  60       26       57 1
  61       27       58 1
  62       30       59 1
  63       31       60 1
  64       33       61 1
  65       33       62 1
  66       33       63 1

@<TRIPOS>MOLECULE

  63   66
SMALL
USER_CHARGES
@<TRIPOS>ATOM
   1 C1           0.5848     4.2386    -5.9184 C.3          1    LIG   0.0000
   2 C2           1.8291     3.4281    -6.2416 C.2          1    LIG   0.0000
   3 N3           2.7484     3.7391    -7.1236 N.2          1    LIG   0.0000
   4 N4           3.6831     2.8112    -7.1281 N.pl3        1    LIG   0.0000
   5 C5           4.8800     2.8221    -7.9855 C.3          1    LIG   0.0000
   6 C6           3.3888     1.8375    -6.2210 C.2          1    LIG   0.0000
   7 C7           4.2153     0.5938    -5.9368 C.3          1    LIG   0.0000
   8 C8           2.2106     2.2095    -5.6431 C.2          1    LIG   0.0000
   9 C9           1.4888     1.4879    -4.6139 C.2          1    LIG   0.0000
  10 C10          1.6519     1.6501    -3.2221 C.2          1    LIG   0.0000
  11 C11          0.7780     0.7780    -2.6518 C.2          1    LIG   0.0000
  12 C12          0.5773     0.5773    -1.2309 C.2          1    LIG   0.0000
  13 O13         -0.2264    -0.2264    -0.8460 O.2          1    LIG   0.0000
  14 O14          1.2733     1.2733    -0.3664 O.3          1    LIG   0.0000
  15 C15          1.0000     1.0000     1.0000 C.3          1    LIG   0.0000
  16 C16          1.8776     1.8776     1.8776 C.2          1    LIG   0.0000
  17 O17          1.4891     2.9588     2.2240 O.2          1    LIG   0.0000
  18 C18          3.1843     1.4081     2.2962 C.2          1    LIG   0.0000
  19 C19          4.1029     2.1151     3.1049 C.2          1    LIG   0.0000
  20 C20          5.1957     1.3135     3.2452 C.2          1    LIG   0.0000
  21 C21          6.4475     1.6556     4.0385 C.3          1    LIG   0.0000
  22 N22          4.9799     0.1560     2.5641 N.pl3        1    LIG   0.0000
  23 C23          5.9215    -0.9699     2.4714 C.3          1    LIG   0.0000
  24 C24          6.8283    -0.7742     1.2673 C.3          1    LIG   0.0000
  25 C25          7.8015    -1.9378     1.1715 C.ar         1    LIG   0.0000
  26 C26          9.0287    -1.8562     1.8218 C.ar         1    LIG   0.0000
  27 C27          9.9163    -2.9235     1.7306 C.ar         1    LIG   0.0000
  28 C28          9.5720    -4.0537     0.9967 C.ar         1    LIG   0.0000
  29 F29         10.4208    -5.0743     0.9094 F            1    LIG   0.0000
  30 C30          8.3453    -4.1349     0.3463 C.ar         1    LIG   0.0000
  31 C31          7.4577    -3.0676     0.4373 C.ar         1    LIG   0.0000
  32 C32          3.7512     0.2113     1.9813 C.2          1    LIG   0.0000
  33 C33          3.1207    -0.8764     1.1265 C.3          1    LIG   0.0000
  34 N34          0.1293     0.1293    -3.6550 N.pl3        1    LIG   0.0000
  35 N35          0.5733     0.5711    -4.8138 N.2          1    LIG   0.0000
  36 H           -0.5732    -0.5717    -3.5326 H            1    LIG   0.0000
  37 H            0.0578     3.7714    -5.2085 H            1    LIG   0.0000
  38 H            0.8529     5.1452    -5.5924 H            1    LIG   0.0000
  39 H            0.0250     4.3325    -6.7417 H            1    LIG   0.0000
  40 H            5.4310     2.0087    -7.7990 H            1    LIG   0.0000
  41 H            4.6019     2.8233    -8.9460 H            1    LIG   0.0000
  42 H            5.4199     3.6417    -7.7937 H            1    LIG   0.0000
  43 H            3.7679     0.0516    -5.2255 H            1    LIG   0.0000
  44 H            4.2946     0.0485    -6.7713 H            1    LIG   0.0000
  45 H            5.1270     0.8631    -5.6267 H            1    LIG   0.0000
  46 H            2.2775     2.2742    -2.7540 H            1    LIG   0.0000
  47 H            1.1925     0.0377     1.1925 H            1    LIG   0.0000
  48 H            0.0377     1.1925     1.1925 H            1    LIG   0.0000
  49 H            3.9757     3.0260     3.4976 H            1    LIG   0.0000
  50 H            6.3491     2.5659     4.4405 H            1    LIG   0.0000
  51 H            6.5754     0.9818     4.7663 H            1    LIG   0.0000
  52 H            7.2412     1.6438     3.4302 H            1    LIG   0.0000
  53 H            5.4111    -1.8237     2.3691 H            1    LIG   0.0000
  54 H            6.4756    -1.0103     3.3029 H            1    LIG   0.0000
  55 H            6.2742    -0.7337     0.4359 H            1    LIG   0.0000
  56 H            7.3386     0.0797     1.3697 H            1    LIG   0.0000
  57 H            9.2696    -1.0408     2.3481 H            1    LIG   0.0000
  58 H           10.8019    -2.8780     2.1927 H            1    LIG   0.0000
  59 H            8.1043    -4.9503    -0.1802 H            1    LIG   0.0000
  60 H            6.5723    -3.1128    -0.0254 H            1    LIG   0.0000
  61 H            2.2149    -0.5796     0.8242 H            1    LIG   0.0000
  62 H            3.6981    -1.0499     0.3286 H            1    LIG   0.0000
  63 H            3.0345    -1.7150     1.6643 H            1    LIG   0.0000
@<TRIPOS>BOND
   1        1        2 1
   2        2        3 2
   3        3        4 1
   4        4        5 1
   5        4        6 1
   6        6        7 1
   7        6        8 2
   8        8        2 1
   9        8        9 1
  10        9       10 1
  11       10       11 2
  12       11       12 1
  13       12       13 2
  14       12       14 1
  15       14       15 1
  16       15       16 1
  17       16       17 2
  18       16       18 1
  19       18       19 1
  20       19       20 2
  21       20       21 1
  22       20       22 1
  23       22       23 1
  24       23       24 1
  25       24       25 1
  26       25       26 ar
  27       26       27 ar
  28       27       28 ar
  29       28       29 1
  30       28       30 ar
  31       30       31 ar
  32       31       25 ar
  33       22       32 1
  34       32       18 2
  35       32       33 1
  36       11       34 1
  37       34       35 1
  38       35        9 2
  39       34       36 1
  40        1       37 1
  41        1       38 1
  42        1       39 1
  43        5       40 1
  44        5       41 1
  45        5       42 1
  46        7       43 1
  47        7       44 1
  48        7       45 1
  49       10       46 1
  50       15       47 1
  51       15       48 1
  52       19       49 1
  53       21       50 1
  54       21       51 1
  55       21       52 1
  56       23       53 1
  57       23       54 1
  58       24       55 1
  59       24       56 1
  60       26       57 1
  61       27       58 1
  62       30       59 1
  63       31       60 1
  64       33       61 1
  65       33       62 1
  66       33       63 1

@<TRIPOS>MOLECULE

  63   66
SMALL
USER_CHARGES
@<TRIPOS>ATOM
   1 C1           1.9835    -1.6703    -6.5553 C.3          1    LIG   0.0000
   2 C2           0.8436    -0.7554    -6.9715 C.2          1    LIG   0.0000
   3 N3           0.2111    -0.7796    -8.1199 N.2          1    LIG   0.0000
   4 N4          -0.7222     0.1498    -8.1259 N.pl3        1    LIG   0.0000
   5 C5          -1.6398     0.4180    -9.2456 C.3          1    LIG   0.0000
   6 C6          -0.7228     0.8284    -6.9441 C.2          1    LIG   0.0000
   7 C7          -1.6425     1.9790    -6.5684 C.3          1    LIG   0.0000
   8 C8           0.2676     0.2686    -6.1916 C.2          1    LIG   0.0000
   9 C9           0.6545     0.6553    -4.8493 C.2          1    LIG   0.0000
  10 C10          0.1259     0.1276    -3.6526 C.2          1    LIG   0.0000
  11 C11          0.7780     0.7780    -2.6518 C.2          1    LIG   0.0000
  12 C12          0.5773     0.5773    -1.2309 C.2          1    LIG   0.0000
  13 O13         -0.2264    -0.2264    -0.8460 O.2          1    LIG   0.0000
  14 O14          1.2733     1.2733    -0.3664 O.3          1    LIG   0.0000
  15 C15          1.0000     1.0000     1.0000 C.3          1    LIG   0.0000
  16 C16          1.8776     1.8776     1.8776 C.2          1    LIG   0.0000
  17 O17          1.4891     2.9588     2.2240 O.2          1    LIG   0.0000
  18 C18          3.1843     1.4081     2.2962 C.2          1    LIG   0.0000
  19 C19          4.1029     2.1151     3.1049 C.2          1    LIG   0.0000
  20 C20          5.1957     1.3135     3.2452 C.2          1    LIG   0.0000
  21 C21          6.4475     1.6556     4.0385 C.3          1    LIG   0.0000
  22 N22          4.9799     0.1560     2.5641 N.pl3        1    LIG   0.0000
  23 C23          5.9215    -0.9699     2.4714 C.3          1    LIG   0.0000
  24 C24          6.8283    -0.7742     1.2673 C.3          1    LIG   0.0000
  25 C25          7.8015    -1.9378     1.1715 C.ar         1    LIG   0.0000
  26 C26          9.0287    -1.8562     1.8218 C.ar         1    LIG   0.0000
  27 C27          9.9163    -2.9235     1.7306 C.ar         1    LIG   0.0000
  28 C28          9.5720    -4.0537     0.9967 C.ar         1    LIG   0.0000
  29 F29         10.4208    -5.0743     0.9094 F            1    LIG   0.0000
  30 C30          8.3453    -4.1349     0.3463 C.ar         1    LIG   0.0000
  31 C31          7.4577    -3.0676     0.4373 C.ar         1    LIG   0.0000
  32 C32          3.7512     0.2113     1.9813 C.2          1    LIG   0.0000
  33 C33          3.1207    -0.8764     1.1265 C.3          1    LIG   0.0000
  34 N34          1.6492     1.6492    -3.2257 N.pl3        1    LIG   0.0000
  35 N35          1.5540     1.5562    -4.5362 N.2          1    LIG   0.0000
  36 H            2.2647     2.2633    -2.7316 H            1    LIG   0.0000
  37 H            2.2796    -1.4340    -5.6298 H            1    LIG   0.0000
  38 H            1.6720    -2.6203    -6.5732 H            1    LIG   0.0000
  39 H            2.7490    -1.5585    -7.1889 H            1    LIG   0.0000
  40 H           -2.2516     1.1707    -9.0022 H            1    LIG   0.0000
  41 H           -1.1115     0.6670   -10.0573 H            1    LIG   0.0000
  42 H           -2.1797    -0.4015    -9.4377 H            1    LIG   0.0000
  43 H           -1.4263     2.2901    -5.6429 H            1    LIG   0.0000
  44 H           -1.5130     2.7331    -7.2123 H            1    LIG   0.0000
  45 H           -2.5932     1.6707    -6.6028 H            1    LIG   0.0000
  46 H           -0.5790    -0.5756    -3.5598 H            1    LIG   0.0000
  47 H            1.1925     0.0377     1.1925 H            1    LIG   0.0000
  48 H            0.0377     1.1925     1.1925 H            1    LIG   0.0000
  49 H            3.9757     3.0260     3.4976 H            1    LIG   0.0000
  50 H            6.3491     2.5659     4.4405 H            1    LIG   0.0000
  51 H            6.5754     0.9818     4.7663 H            1    LIG   0.0000
  52 H            7.2412     1.6438     3.4302 H            1    LIG   0.0000
  53 H            5.4111    -1.8237     2.3691 H            1    LIG   0.0000
  54 H            6.4756    -1.0103     3.3029 H            1    LIG   0.0000
  55 H            6.2742    -0.7337     0.4359 H            1    LIG   0.0000
  56 H            7.3386     0.0797     1.3697 H            1    LIG   0.0000
  57 H            9.2696    -1.0408     2.3481 H            1    LIG   0.0000
  58 H           10.8019    -2.8780     2.1927 H            1    LIG   0.0000
  59 H            8.1043    -4.9503    -0.1802 H            1    LIG   0.0000
  60 H            6.5723    -3.1128    -0.0254 H            1    LIG   0.0000
  61 H            2.2149    -0.5796     0.8242 H            1    LIG   0.0000
  62 H            3.6981    -1.0499     0.3286 H            1    LIG   0.0000
  63 H            3.0345    -1.7150     1.6643 H            1    LIG   0.0000
@<TRIPOS>BOND
   1        1        2 1
   2        2        3 2
   3        3        4 1
   4        4        5 1
   5        4        6 1
   6        6        7 1
   7        6        8 2
   8        8        2 1
   9        8        9 1
  10        9       10 1
  11       10       11 2
  12       11       12 1
  13       12       13 2
  14       12       14 1
  15       14       15 1
  16       15       16 1
  17       16       17 2
  18       16       18 1
  19       18       19 1
  20       19       20 2
  21       20       21 1
  22       20       22 1
  23       22       23 1
  24       23       24 1
  25       24       25 1
  26       25       26 ar
  27       26       27 ar
  28       27       28 ar
  29       28       29 1
  30       28       30 ar
  31       30       31 ar
  32       31       25 ar
  33       22       32 1
  34       32       18 2
  35       32       33 1
  36       11       34 1
  37       34       35 1
  38       35        9 2
  39       34       36 1
  40        1       37 1
  41        1       38 1
  42        1       39 1
  43        5       40 1
  44        5       41 1
  45        5       42 1
  46        7       43 1
  47        7       44 1
  48        7       45 1
  49       10       46 1
  50       15       47 1
  51       15       48 1
  52       19       49 1
  53       21       50 1
  54       21       51 1
  55       21       52 1
  56       23       53 1
  57       23       54 1
  58       24       55 1
  59       24       56 1
  60       26       57 1
  61       27       58 1
  62       30       59 1
  63       31       60 1
  64       33       61 1
  65       33       62 1
  66       33       63 1

@<TRIPOS>MOLECULE

  63   66
SMALL
USER_CHARGES
@<TRIPOS>ATOM
   1 C1           0.5848     4.2386    -5.9184 C.3          1    LIG   0.0000
   2 C2           1.8291     3.4281    -6.2416 C.2          1    LIG   0.0000
   3 N3           2.7484     3.7391    -7.1236 N.2          1    LIG   0.0000
   4 N4           3.6831     2.8112    -7.1281 N.pl3        1    LIG   0.0000
   5 C5           4.8800     2.8221    -7.9855 C.3          1    LIG   0.0000
   6 C6           3.3888     1.8375    -6.2210 C.2          1    LIG   0.0000
   7 C7           4.2153     0.5938    -5.9368 C.3          1    LIG   0.0000
   8 C8           2.2106     2.2095    -5.6431 C.2          1    LIG   0.0000
   9 C9           1.4888     1.4879    -4.6139 C.2          1    LIG   0.0000
  10 C10          1.6519     1.6501    -3.2221 C.2          1    LIG   0.0000
  11 C11          0.7780     0.7780    -2.6518 C.2          1    LIG   0.0000
  12 C12          0.5773     0.5773    -1.2309 C.2          1    LIG   0.0000
  13 O13         -0.2264    -0.2264    -0.8460 O.2          1    LIG   0.0000
  14 O14          1.2733     1.2733    -0.3664 O.3          1    LIG   0.0000
  15 C15          1.0000     1.0000     1.0000 C.3          1    LIG   0.0000
  16 C16          1.8776     1.8776     1.8776 C.2          1    LIG   0.0000
  17 O17          2.9588     1.4891     2.2240 O.2          1    LIG   0.0000
  18 C18          1.4081     3.1843     2.2962 C.2          1    LIG   0.0000
  19 C19          0.1650     3.7684     1.9626 C.2          1    LIG   0.0000
  20 C20          0.1385     4.9941     2.5569 C.2          1    LIG   0.0000
  21 C21         -1.0079     5.9905     2.4783 C.3          1    LIG   0.0000
  22 N22          1.3029     5.1767     3.2360 N.pl3        1    LIG   0.0000
  23 C23          1.6613     6.3729     4.0127 C.3          1    LIG   0.0000
  24 C24          2.3729     7.3682     3.1108 C.3          1    LIG   0.0000
  25 C25          2.7433     8.6046     3.9136 C.ar         1    LIG   0.0000
  26 C26          1.8442     9.6635     3.9894 C.ar         1    LIG   0.0000
  27 C27          2.1880    10.7933     4.7248 C.ar         1    LIG   0.0000
  28 C28          3.4171    10.8538     5.3730 C.ar         1    LIG   0.0000
  29 F29          3.7459    11.9341     6.0761 F            1    LIG   0.0000
  30 C30          4.3161     9.7952     5.2967 C.ar         1    LIG   0.0000
  31 C31          3.9724     8.6656     4.5612 C.ar         1    LIG   0.0000
  32 C32          2.0823     4.0722     3.0773 C.2          1    LIG   0.0000
  33 C33          3.4667     3.8659     3.6706 C.3          1    LIG   0.0000
  34 N34          0.1293     0.1293    -3.6550 N.pl3        1    LIG   0.0000
  35 N35          0.5733     0.5711    -4.8138 N.2          1    LIG   0.0000
  36 H           -0.5732    -0.5717    -3.5326 H            1    LIG   0.0000
  37 H            0.0578     3.7714    -5.2085 H            1    LIG   0.0000
  38 H            0.8529     5.1452    -5.5924 H            1    LIG   0.0000
  39 H            0.0250     4.3325    -6.7417 H            1    LIG   0.0000
  40 H            5.4310     2.0087    -7.7990 H            1    LIG   0.0000
  41 H            4.6019     2.8233    -8.9460 H            1    LIG   0.0000
  42 H            5.4199     3.6417    -7.7937 H            1    LIG   0.0000
  43 H            3.7679     0.0516    -5.2255 H            1    LIG   0.0000
  44 H            4.2946     0.0485    -6.7713 H            1    LIG   0.0000
  45 H            5.1270     0.8631    -5.6267 H            1    LIG   0.0000
  46 H            2.2775     2.2742    -2.7540 H            1    LIG   0.0000
  47 H            1.1925     0.0377     1.1925 H            1    LIG   0.0000
  48 H            0.0377     1.1925     1.1925 H            1    LIG   0.0000
  49 H           -0.5546     3.3614     1.4001 H            1    LIG   0.0000
  50 H           -1.7425     5.6099     1.9167 H            1    LIG   0.0000
  51 H           -1.3531     6.1748     3.3985 H            1    LIG   0.0000
  52 H           -0.6817     6.8422     2.0679 H            1    LIG   0.0000
  53 H            2.2665     6.1129     4.7651 H            1    LIG   0.0000
  54 H            0.8315     6.7916     4.3819 H            1    LIG   0.0000
  55 H            3.2026     6.9496     2.7417 H            1    LIG   0.0000
  56 H            1.7677     7.6283     2.3585 H            1    LIG   0.0000
  57 H            0.9619     9.6132     3.5213 H            1    LIG   0.0000
  58 H            1.5514    11.5619     4.7873 H            1    LIG   0.0000
  59 H            5.1983     9.8456     5.7648 H            1    LIG   0.0000
  60 H            4.6093     7.8972     4.4981 H            1    LIG   0.0000
  61 H            3.8156     2.9690     3.3988 H            1    LIG   0.0000
  62 H            4.0827     4.5787     3.3353 H            1    LIG   0.0000
  63 H            3.4126     3.9143     4.6680 H            1    LIG   0.0000
@<TRIPOS>BOND
   1        1        2 1
   2        2        3 2
   3        3        4 1
   4        4        5 1
   5        4        6 1
   6        6        7 1
   7        6        8 2
   8        8        2 1
   9        8        9 1
  10        9       10 1
  11       10       11 2
  12       11       12 1
  13       12       13 2
  14       12       14 1
  15       14       15 1
  16       15       16 1
  17       16       17 2
  18       16       18 1
  19       18       19 1
  20       19       20 2
  21       20       21 1
  22       20       22 1
  23       22       23 1
  24       23       24 1
  25       24       25 1
  26       25       26 ar
  27       26       27 ar
  28       27       28 ar
  29       28       29 1
  30       28       30 ar
  31       30       31 ar
  32       31       25 ar
  33       22       32 1
  34       32       18 2
  35       32       33 1
  36       11       34 1
  37       34       35 1
  38       35        9 2
  39       34       36 1
  40        1       37 1
  41        1       38 1
  42        1       39 1
  43        5       40 1
  44        5       41 1
  45        5       42 1
  46        7       43 1
  47        7       44 1
  48        7       45 1
  49       10       46 1
  50       15       47 1
  51       15       48 1
  52       19       49 1
  53       21       50 1
  54       21       51 1
  55       21       52 1
  56       23       53 1
  57       23       54 1
  58       24       55 1
  59       24       56 1
  60       26       57 1
  61       27       58 1
  62       30       59 1
  63       31       60 1
  64       33       61 1
  65       33       62 1
  66       33       63 1

@<TRIPOS>MOLECULE

  63   66
SMALL
USER_CHARGES
@<TRIPOS>ATOM
   1 C1           1.9835    -1.6703    -6.5553 C.3          1    LIG   0.0000
   2 C2           0.8436    -0.7554    -6.9715 C.2          1    LIG   0.0000
   3 N3           0.2111    -0.7796    -8.1199 N.2          1    LIG   0.0000
   4 N4          -0.7222     0.1498    -8.1259 N.pl3        1    LIG   0.0000
   5 C5          -1.6398     0.4180    -9.2456 C.3          1    LIG   0.0000
   6 C6          -0.7228     0.8284    -6.9441 C.2          1    LIG   0.0000
   7 C7          -1.6425     1.9790    -6.5684 C.3          1    LIG   0.0000
   8 C8           0.2676     0.2686    -6.1916 C.2          1    LIG   0.0000
   9 C9           0.6545     0.6553    -4.8493 C.2          1    LIG   0.0000
  10 C10          0.1259     0.1276    -3.6526 C.2          1    LIG   0.0000
  11 C11          0.7780     0.7780    -2.6518 C.2          1    LIG   0.0000
  12 C12          0.5773     0.5773    -1.2309 C.2          1    LIG   0.0000
  13 O13         -0.2264    -0.2264    -0.8460 O.2          1    LIG   0.0000
  14 O14          1.2733     1.2733    -0.3664 O.3          1    LIG   0.0000
  15 C15          1.0000     1.0000     1.0000 C.3          1    LIG   0.0000
  16 C16          1.8776     1.8776     1.8776 C.2          1    LIG   0.0000
  17 O17          2.9588     1.4891     2.2240 O.2          1    LIG   0.0000
  18 C18          1.4081     3.1843     2.2962 C.2          1    LIG   0.0000
  19 C19          0.1650     3.7684     1.9626 C.2          1    LIG   0.0000
  20 C20          0.1385     4.9941     2.5569 C.2          1    LIG   0.0000
  21 C21         -1.0079     5.9905     2.4783 C.3          1    LIG   0.0000
  22 N22          1.3029     5.1767     3.2360 N.pl3        1    LIG   0.0000
  23 C23          1.6613     6.3729     4.0127 C.3          1    LIG   0.0000
  24 C24          2.3729     7.3682     3.1108 C.3          1    LIG   0.0000
  25 C25          2.7433     8.6046     3.9136 C.ar         1    LIG   0.0000
  26 C26          1.8442     9.6635     3.9894 C.ar         1    LIG   0.0000
  27 C27          2.1880    10.7933     4.7248 C.ar         1    LIG   0.0000
  28 C28          3.4171    10.8538     5.3730 C.ar         1    LIG   0.0000
  29 F29          3.7459    11.9341     6.0761 F            1    LIG   0.0000
  30 C30          4.3161     9.7952     5.2967 C.ar         1    LIG   0.0000
  31 C31          3.9724     8.6656     4.5612 C.ar         1    LIG   0.0000
  32 C32          2.0823     4.0722     3.0773 C.2          1    LIG   0.0000
  33 C33          3.4667     3.8659     3.6706 C.3          1    LIG   0.0000
  34 N34          1.6492     1.6492    -3.2257 N.pl3        1    LIG   0.0000
  35 N35          1.5540     1.5562    -4.5362 N.2          1    LIG   0.0000
  36 H            2.2647     2.2633    -2.7316 H            1    LIG   0.0000
  37 H            2.2796    -1.4340    -5.6298 H            1    LIG   0.0000
  38 H            1.6720    -2.6203    -6.5732 H            1    LIG   0.0000
  39 H            2.7490    -1.5585    -7.1889 H            1    LIG   0.0000
  40 H           -2.2516     1.1707    -9.0022 H            1    LIG   0.0000
  41 H           -1.1115     0.6670   -10.0573 H            1    LIG   0.0000
  42 H           -2.1797    -0.4015    -9.4377 H            1    LIG   0.0000
  43 H           -1.4263     2.2901    -5.6429 H            1    LIG   0.0000
  44 H           -1.5130     2.7331    -7.2123 H            1    LIG   0.0000
  45 H           -2.5932     1.6707    -6.6028 H            1    LIG   0.0000
  46 H           -0.5790    -0.5756    -3.5598 H            1    LIG   0.0000
  47 H            1.1925     0.0377     1.1925 H            1    LIG   0.0000
  48 H            0.0377     1.1925     1.1925 H            1    LIG   0.0000
  49 H           -0.5546     3.3614     1.4001 H            1    LIG   0.0000
  50 H           -1.7425     5.6099     1.9167 H            1    LIG   0.0000
  51 H           -1.3531     6.1748     3.3985 H            1    LIG   0.0000
  52 H           -0.6817     6.8422     2.0679 H            1    LIG   0.0000
  53 H            2.2665     6.1129     4.7651 H            1    LIG   0.0000
  54 H            0.8315     6.7916     4.3819 H            1    LIG   0.0000
  55 H            3.2026     6.9496     2.7417 H            1    LIG   0.0000
  56 H            1.7677     7.6283     2.3585 H            1    LIG   0.0000
  57 H            0.9619     9.6132     3.5213 H            1    LIG   0.0000
  58 H            1.5514    11.5619     4.7873 H            1    LIG   0.0000
  59 H            5.1983     9.8456     5.7648 H            1    LIG   0.0000
  60 H            4.6093     7.8972     4.4981 H            1    LIG   0.0000
  61 H            3.8156     2.9690     3.3988 H            1    LIG   0.0000
  62 H            4.0827     4.5787     3.3353 H            1    LIG   0.0000
  63 H            3.4126     3.9143     4.6680 H            1    LIG   0.0000
@<TRIPOS>BOND
   1        1        2 1
   2        2        3 2
   3        3        4 1
   4        4        5 1
   5        4        6 1
   6        6        7 1
   7        6        8 2
   8        8        2 1
   9        8        9 1
  10        9       10 1
  11       10       11 2
  12       11       12 1
  13       12       13 2
  14       12       14 1
  15       14       15 1
  16       15       16 1
  17       16       17 2
  18       16       18 1
  19       18       19 1
  20       19       20 2
  21       20       21 1
  22       20       22 1
  23       22       23 1
  24       23       24 1
  25       24       25 1
  26       25       26 ar
  27       26       27 ar
  28       27       28 ar
  29       28       29 1
  30       28       30 ar
  31       30       31 ar
  32       31       25 ar
  33       22       32 1
  34       32       18 2
  35       32       33 1
  36       11       34 1
  37       34       35 1
  38       35        9 2
  39       34       36 1
  40        1       37 1
  41        1       38 1
  42        1       39 1
  43        5       40 1
  44        5       41 1
  45        5       42 1
  46        7       43 1
  47        7       44 1
  48        7       45 1
  49       10       46 1
  50       15       47 1
  51       15       48 1
  52       19       49 1
  53       21       50 1
  54       21       51 1
  55       21       52 1
  56       23       53 1
  57       23       54 1
  58       24       55 1
  59       24       56 1
  60       26       57 1
  61       27       58 1
  62       30       59 1
  63       31       60 1
  64       33       61 1
  65       33       62 1
  66       33       63 1

@<TRIPOS>MOLECULE

  63   66
SMALL
USER_CHARGES
@<TRIPOS>ATOM
   1 C1           4.2307     0.5747    -5.9302 C.3          1    LIG   0.0000
   2 C2           3.4303     1.8289    -6.2399 C.2          1    LIG   0.0000
   3 N3           3.7448     2.7514    -7.1172 N.2          1    LIG   0.0000
   4 N4           2.8168     3.6861    -7.1222 N.pl3        1    LIG   0.0000
   5 C5           2.8254     4.8801    -7.9835 C.3          1    LIG   0.0000
   6 C6           1.8409     3.3898    -6.2182 C.2          1    LIG   0.0000
   7 C7           0.6067     4.2260    -5.9210 C.3          1    LIG   0.0000
   8 C8           2.2106     2.2095    -5.6431 C.2          1    LIG   0.0000
   9 C9           1.4888     1.4879    -4.6139 C.2          1    LIG   0.0000
  10 C10          1.6519     1.6501    -3.2221 C.2          1    LIG   0.0000
  11 C11          0.7780     0.7780    -2.6518 C.2          1    LIG   0.0000
  12 C12          0.5773     0.5773    -1.2309 C.2          1    LIG   0.0000
  13 O13         -0.2264    -0.2264    -0.8460 O.2          1    LIG   0.0000
  14 O14          1.2733     1.2733    -0.3664 O.3          1    LIG   0.0000
  15 C15          1.0000     1.0000     1.0000 C.3          1    LIG   0.0000
  16 C16          1.8776     1.8776     1.8776 C.2          1    LIG   0.0000
  17 O17          2.9588     1.4891     2.2240 O.2          1    LIG   0.0000
  18 C18          1.4081     3.1843     2.2962 C.2          1    LIG   0.0000
  19 C19          2.1124     4.1002     3.1104 C.2          1    LIG   0.0000
  20 C20          1.3073     5.1894     3.2577 C.2          1    LIG   0.0000
  21 C21          1.6468     6.4388     4.0559 C.3          1    LIG   0.0000
  22 N22          0.1534     4.9773     2.5692 N.pl3        1    LIG   0.0000
  23 C23         -0.9728     5.9186     2.4773 C.3          1    LIG   0.0000
  24 C24         -0.7743     6.8306     1.2776 C.3          1    LIG   0.0000
  25 C25         -1.9383     7.8034     1.1826 C.ar         1    LIG   0.0000
  26 C26         -3.0622     7.4523     0.4416 C.ar         1    LIG   0.0000
  27 C27         -4.1247     8.3463     0.3571 C.ar         1    LIG   0.0000
  28 C28         -4.0552     9.5730     1.0091 C.ar         1    LIG   0.0000
  29 F29         -5.0711    10.4279     0.9281 F            1    LIG   0.0000
  30 C30         -2.9313     9.9240     1.7495 C.ar         1    LIG   0.0000
  31 C31         -1.8687     9.0301     1.8339 C.ar         1    LIG   0.0000
  32 C32          0.2113     3.7512     1.9813 C.2          1    LIG   0.0000
  33 C33         -0.8735     3.1236     1.1208 C.3          1    LIG   0.0000
  34 N34          0.1293     0.1293    -3.6550 N.pl3        1    LIG   0.0000
  35 N35          0.5733     0.5711    -4.8138 N.2          1    LIG   0.0000
  36 H           -0.5732    -0.5717    -3.5326 H            1    LIG   0.0000
  37 H            3.7627     0.0471    -5.2213 H            1    LIG   0.0000
  38 H            4.3146     0.0200    -6.7580 H            1    LIG   0.0000
  39 H            5.1417     0.8319    -5.6076 H            1    LIG   0.0000
  40 H            2.0125     5.4317    -7.7966 H            1    LIG   0.0000
  41 H            3.6454     5.4207    -7.7957 H            1    LIG   0.0000
  42 H            2.8240     4.5989    -8.9432 H            1    LIG   0.0000
  43 H            0.0604     3.7747    -5.2154 H            1    LIG   0.0000
  44 H            0.8865     5.1303    -5.5985 H            1    LIG   0.0000
  45 H            0.0614     4.3230    -6.7536 H            1    LIG   0.0000
  46 H            2.2775     2.2742    -2.7540 H            1    LIG   0.0000
  47 H            1.1925     0.0377     1.1925 H            1    LIG   0.0000
  48 H            0.0377     1.1925     1.1925 H            1    LIG   0.0000
  49 H            3.0238     3.9735     3.5019 H            1    LIG   0.0000
  50 H            2.5545     6.3377     4.4631 H            1    LIG   0.0000
  51 H            1.6403     7.2338     3.4494 H            1    LIG   0.0000
  52 H            0.9690     6.5663     4.7799 H            1    LIG   0.0000
  53 H           -1.0160     6.4691     3.3110 H            1    LIG   0.0000
  54 H           -1.8260     5.4081     2.3703 H            1    LIG   0.0000
  55 H            0.0789     7.3411     1.3845 H            1    LIG   0.0000
  56 H           -0.7311     6.2801     0.4439 H            1    LIG   0.0000
  57 H           -3.1058     6.5686    -0.0243 H            1    LIG   0.0000
  58 H           -4.9385     8.1070    -0.1725 H            1    LIG   0.0000
  59 H           -2.8877    10.8078     2.2153 H            1    LIG   0.0000
  60 H           -1.0546     9.2697     2.3629 H            1    LIG   0.0000
  61 H           -0.5753     2.2192     0.8155 H            1    LIG   0.0000
  62 H           -1.7136     3.0345     1.6559 H            1    LIG   0.0000
  63 H           -1.0453     3.7042     0.3249 H            1    LIG   0.0000
@<TRIPOS>BOND
   1        1        2 1
   2        2        3 2
   3        3        4 1
   4        4        5 1
   5        4        6 1
   6        6        7 1
   7        6        8 2
   8        8        2 1
   9        8        9 1
  10        9       10 1
  11       10       11 2
  12       11       12 1
  13       12       13 2
  14       12       14 1
  15       14       15 1
  16       15       16 1
  17       16       17 2
  18       16       18 1
  19       18       19 1
  20       19       20 2
  21       20       21 1
  22       20       22 1
  23       22       23 1
  24       23       24 1
  25       24       25 1
  26       25       26 ar
  27       26       27 ar
  28       27       28 ar
  29       28       29 1
  30       28       30 ar
  31       30       31 ar
  32       31       25 ar
  33       22       32 1
  34       32       18 2
  35       32       33 1
  36       11       34 1
  37       34       35 1
  38       35        9 2
  39       34       36 1
  40        1       37 1
  41        1       38 1
  42        1       39 1
  43        5       40 1
  44        5       41 1
  45        5       42 1
  46        7       43 1
  47        7       44 1
  48        7       45 1
  49       10       46 1
  50       15       47 1
  51       15       48 1
  52       19       49 1
  53       21       50 1
  54       21       51 1
  55       21       52 1
  56       23       53 1
  57       23       54 1
  58       24       55 1
  59       24       56 1
  60       26       57 1
  61       27       58 1
  62       30       59 1
  63       31       60 1
  64       33       61 1
  65       33       62 1
  66       33       63 1

@<TRIPOS>MOLECULE

  63   66
SMALL
USER_CHARGES
@<TRIPOS>ATOM
   1 C1           0.5848     4.2386    -5.9184 C.3          1    LIG   0.0000
   2 C2           1.8291     3.4281    -6.2416 C.2          1    LIG   0.0000
   3 N3           2.7484     3.7391    -7.1236 N.2          1    LIG   0.0000
   4 N4           3.6831     2.8112    -7.1281 N.pl3        1    LIG   0.0000
   5 C5           4.8800     2.8221    -7.9855 C.3          1    LIG   0.0000
   6 C6           3.3888     1.8375    -6.2210 C.2          1    LIG   0.0000
   7 C7           4.2153     0.5938    -5.9368 C.3          1    LIG   0.0000
   8 C8           2.2106     2.2095    -5.6431 C.2          1    LIG   0.0000
   9 C9           1.4888     1.4879    -4.6139 C.2          1    LIG   0.0000
  10 C10          1.6519     1.6501    -3.2221 C.2          1    LIG   0.0000
  11 C11          0.7780     0.7780    -2.6518 C.2          1    LIG   0.0000
  12 C12          0.5773     0.5773    -1.2309 C.2          1    LIG   0.0000
  13 O13         -0.2264    -0.2264    -0.8460 O.2          1    LIG   0.0000
  14 O14          1.2733     1.2733    -0.3664 O.3          1    LIG   0.0000
  15 C15          1.0000     1.0000     1.0000 C.3          1    LIG   0.0000
  16 C16          1.8776     1.8776     1.8776 C.2          1    LIG   0.0000
  17 O17          2.9588     1.4891     2.2240 O.2          1    LIG   0.0000
  18 C18          1.4081     3.1843     2.2962 C.2          1    LIG   0.0000
  19 C19          2.1124     4.1002     3.1104 C.2          1    LIG   0.0000
  20 C20          1.3073     5.1894     3.2577 C.2          1    LIG   0.0000
  21 C21          1.6468     6.4388     4.0559 C.3          1    LIG   0.0000
  22 N22          0.1534     4.9773     2.5692 N.pl3        1    LIG   0.0000
  23 C23         -0.9728     5.9186     2.4773 C.3          1    LIG   0.0000
  24 C24         -1.9473     5.6551     3.6136 C.3          1    LIG   0.0000
  25 C25         -3.1113     6.6279     3.5186 C.ar         1    LIG   0.0000
  26 C26         -3.0325     7.8524     4.1743 C.ar         1    LIG   0.0000
  27 C27         -4.1007     8.7391     4.0850 C.ar         1    LIG   0.0000
  28 C28         -5.2287     8.3971     3.3466 C.ar         1    LIG   0.0000
  29 F29         -6.2502     9.2449     3.2613 F            1    LIG   0.0000
  30 C30         -5.3075     7.1727     2.6915 C.ar         1    LIG   0.0000
  31 C31         -4.2395     6.2858     2.7810 C.ar         1    LIG   0.0000
  32 C32          0.2113     3.7512     1.9813 C.2          1    LIG   0.0000
  33 C33         -0.8735     3.1236     1.1208 C.3          1    LIG   0.0000
  34 N34          0.1293     0.1293    -3.6550 N.pl3        1    LIG   0.0000
  35 N35          0.5733     0.5711    -4.8138 N.2          1    LIG   0.0000
  36 H           -0.5732    -0.5717    -3.5326 H            1    LIG   0.0000
  37 H            0.0578     3.7714    -5.2085 H            1    LIG   0.0000
  38 H            0.8529     5.1452    -5.5924 H            1    LIG   0.0000
  39 H            0.0250     4.3325    -6.7417 H            1    LIG   0.0000
  40 H            5.4310     2.0087    -7.7990 H            1    LIG   0.0000
  41 H            4.6019     2.8233    -8.9460 H            1    LIG   0.0000
  42 H            5.4199     3.6417    -7.7937 H            1    LIG   0.0000
  43 H            3.7679     0.0516    -5.2255 H            1    LIG   0.0000
  44 H            4.2946     0.0485    -6.7713 H            1    LIG   0.0000
  45 H            5.1270     0.8631    -5.6267 H            1    LIG   0.0000
  46 H            2.2775     2.2742    -2.7540 H            1    LIG   0.0000
  47 H            1.1925     0.0377     1.1925 H            1    LIG   0.0000
  48 H            0.0377     1.1925     1.1925 H            1    LIG   0.0000
  49 H            3.0238     3.9735     3.5019 H            1    LIG   0.0000
  50 H            2.5545     6.3377     4.4631 H            1    LIG   0.0000
  51 H            1.6403     7.2338     3.4494 H            1    LIG   0.0000
  52 H            0.9690     6.5663     4.7799 H            1    LIG   0.0000
  53 H           -1.4401     5.7947     1.6019 H            1    LIG   0.0000
  54 H           -0.6301     6.8558     2.5425 H            1    LIG   0.0000
  55 H           -2.2900     4.7179     3.5484 H            1    LIG   0.0000
  56 H           -1.4800     5.7790     4.4890 H            1    LIG   0.0000
  57 H           -2.2183     8.0921     4.7032 H            1    LIG   0.0000
  58 H           -4.0576     9.6224     4.5517 H            1    LIG   0.0000
  59 H           -6.1218     6.9329     2.1627 H            1    LIG   0.0000
  60 H           -4.2829     5.4022     2.3148 H            1    LIG   0.0000
  61 H           -0.5753     2.2192     0.8155 H            1    LIG   0.0000
  62 H           -1.7136     3.0345     1.6559 H            1    LIG   0.0000
  63 H           -1.0453     3.7042     0.3249 H            1    LIG   0.0000
@<TRIPOS>BOND
   1        1        2 1
   2        2        3 2
   3        3        4 1
   4        4        5 1
   5        4        6 1
   6        6        7 1
   7        6        8 2
   8        8        2 1
   9        8        9 1
  10        9       10 1
  11       10       11 2
  12       11       12 1
  13       12       13 2
  14       12       14 1
  15       14       15 1
  16       15       16 1
  17       16       17 2
  18       16       18 1
  19       18       19 1
  20       19       20 2
  21       20       21 1
  22       20       22 1
  23       22       23 1
  24       23       24 1
  25       24       25 1
  26       25       26 ar
  27       26       27 ar
  28       27       28 ar
  29       28       29 1
  30       28       30 ar
  31       30       31 ar
  32       31       25 ar
  33       22       32 1
  34       32       18 2
  35       32       33 1
  36       11       34 1
  37       34       35 1
  38       35        9 2
  39       34       36 1
  40        1       37 1
  41        1       38 1
  42        1       39 1
  43        5       40 1
  44        5       41 1
  45        5       42 1
  46        7       43 1
  47        7       44 1
  48        7       45 1
  49       10       46 1
  50       15       47 1
  51       15       48 1
  52       19       49 1
  53       21       50 1
  54       21       51 1
  55       21       52 1
  56       23       53 1
  57       23       54 1
  58       24       55 1
  59       24       56 1
  60       26       57 1
  61       27       58 1
  62       30       59 1
  63       31       60 1
  64       33       61 1
  65       33       62 1
  66       33       63 1

@<TRIPOS>MOLECULE

  63   66
SMALL
USER_CHARGES
@<TRIPOS>ATOM
   1 C1           1.9835    -1.6703    -6.5553 C.3          1    LIG   0.0000
   2 C2           0.8436    -0.7554    -6.9715 C.2          1    LIG   0.0000
   3 N3           0.2111    -0.7796    -8.1199 N.2          1    LIG   0.0000
   4 N4          -0.7222     0.1498    -8.1259 N.pl3        1    LIG   0.0000
   5 C5          -1.6398     0.4180    -9.2456 C.3          1    LIG   0.0000
   6 C6          -0.7228     0.8284    -6.9441 C.2          1    LIG   0.0000
   7 C7          -1.6425     1.9790    -6.5684 C.3          1    LIG   0.0000
   8 C8           0.2676     0.2686    -6.1916 C.2          1    LIG   0.0000
   9 C9           0.6545     0.6553    -4.8493 C.2          1    LIG   0.0000
  10 C10          0.1259     0.1276    -3.6526 C.2          1    LIG   0.0000
  11 C11          0.7780     0.7780    -2.6518 C.2          1    LIG   0.0000
  12 C12          0.5773     0.5773    -1.2309 C.2          1    LIG   0.0000
  13 O13         -0.2264    -0.2264    -0.8460 O.2          1    LIG   0.0000
  14 O14          1.2733     1.2733    -0.3664 O.3          1    LIG   0.0000
  15 C15          1.0000     1.0000     1.0000 C.3          1    LIG   0.0000
  16 C16          1.8776     1.8776     1.8776 C.2          1    LIG   0.0000
  17 O17          2.9588     1.4891     2.2240 O.2          1    LIG   0.0000
  18 C18          1.4081     3.1843     2.2962 C.2          1    LIG   0.0000
  19 C19          2.1124     4.1002     3.1104 C.2          1    LIG   0.0000
  20 C20          1.3073     5.1894     3.2577 C.2          1    LIG   0.0000
  21 C21          1.6468     6.4388     4.0559 C.3          1    LIG   0.0000
  22 N22          0.1534     4.9773     2.5692 N.pl3        1    LIG   0.0000
  23 C23         -0.9728     5.9186     2.4773 C.3          1    LIG   0.0000
  24 C24         -1.9473     5.6551     3.6136 C.3          1    LIG   0.0000
  25 C25         -3.1113     6.6279     3.5186 C.ar         1    LIG   0.0000
  26 C26         -3.0325     7.8524     4.1743 C.ar         1    LIG   0.0000
  27 C27         -4.1007     8.7391     4.0850 C.ar         1    LIG   0.0000
  28 C28         -5.2287     8.3971     3.3466 C.ar         1    LIG   0.0000
  29 F29         -6.2502     9.2449     3.2613 F            1    LIG   0.0000
  30 C30         -5.3075     7.1727     2.6915 C.ar         1    LIG   0.0000
  31 C31         -4.2395     6.2858     2.7810 C.ar         1    LIG   0.0000
  32 C32          0.2113     3.7512     1.9813 C.2          1    LIG   0.0000
  33 C33         -0.8735     3.1236     1.1208 C.3          1    LIG   0.0000
  34 N34          1.6492     1.6492    -3.2257 N.pl3        1    LIG   0.0000
  35 N35          1.5540     1.5562    -4.5362 N.2          1    LIG   0.0000
  36 H            2.2647     2.2633    -2.7316 H            1    LIG   0.0000
  37 H            2.2796    -1.4340    -5.6298 H            1    LIG   0.0000
  38 H            1.6720    -2.6203    -6.5732 H            1    LIG   0.0000
  39 H            2.7490    -1.5585    -7.1889 H            1    LIG   0.0000
  40 H           -2.2516     1.1707    -9.0022 H            1    LIG   0.0000
  41 H           -1.1115     0.6670   -10.0573 H            1    LIG   0.0000
  42 H           -2.1797    -0.4015    -9.4377 H            1    LIG   0.0000
  43 H           -1.4263     2.2901    -5.6429 H            1    LIG   0.0000
  44 H           -1.5130     2.7331    -7.2123 H            1    LIG   0.0000
  45 H           -2.5932     1.6707    -6.6028 H            1    LIG   0.0000
  46 H           -0.5790    -0.5756    -3.5598 H            1    LIG   0.0000
  47 H            1.1925     0.0377     1.1925 H            1    LIG   0.0000
  48 H            0.0377     1.1925     1.1925 H            1    LIG   0.0000
  49 H            3.0238     3.9735     3.5019 H            1    LIG   0.0000
  50 H            2.5545     6.3377     4.4631 H            1    LIG   0.0000
  51 H            1.6403     7.2338     3.4494 H            1    LIG   0.0000
  52 H            0.9690     6.5663     4.7799 H            1    LIG   0.0000
  53 H           -1.4401     5.7947     1.6019 H            1    LIG   0.0000
  54 H           -0.6301     6.8558     2.5425 H            1    LIG   0.0000
  55 H           -2.2900     4.7179     3.5484 H            1    LIG   0.0000
  56 H           -1.4800     5.7790     4.4890 H            1    LIG   0.0000
  57 H           -2.2183     8.0921     4.7032 H            1    LIG   0.0000
  58 H           -4.0576     9.6224     4.5517 H            1    LIG   0.0000
  59 H           -6.1218     6.9329     2.1627 H            1    LIG   0.0000
  60 H           -4.2829     5.4022     2.3148 H            1    LIG   0.0000
  61 H           -0.5753     2.2192     0.8155 H            1    LIG   0.0000
  62 H           -1.7136     3.0345     1.6559 H            1    LIG   0.0000
  63 H           -1.0453     3.7042     0.3249 H            1    LIG   0.0000
@<TRIPOS>BOND
   1        1        2 1
   2        2        3 2
   3        3        4 1
   4        4        5 1
   5        4        6 1
   6        6        7 1
   7        6        8 2
   8        8        2 1
   9        8        9 1
  10        9       10 1
  11       10       11 2
  12       11       12 1
  13       12       13 2
  14       12       14 1
  15       14       15 1
  16       15       16 1
  17       16       17 2
  18       16       18 1
  19       18       19 1
  20       19       20 2
  21       20       21 1
  22       20       22 1
  23       22       23 1
  24       23       24 1
  25       24       25 1
  26       25       26 ar
  27       26       27 ar
  28       27       28 ar
  29       28       29 1
  30       28       30 ar
  31       30       31 ar
  32       31       25 ar
  33       22       32 1
  34       32       18 2
  35       32       33 1
  36       11       34 1
  37       34       35 1
  38       35        9 2
  39       34       36 1
  40        1       37 1
  41        1       38 1
  42        1       39 1
  43        5       40 1
  44        5       41 1
  45        5       42 1
  46        7       43 1
  47        7       44 1
  48        7       45 1
  49       10       46 1
  50       15       47 1
  51       15       48 1
  52       19       49 1
  53       21       50 1
  54       21       51 1
  55       21       52 1
  56       23       53 1
  57       23       54 1
  58       24       55 1
  59       24       56 1
  60       26       57 1
  61       27       58 1
  62       30       59 1
  63       31       60 1
  64       33       61 1
  65       33       62 1
  66       33       63 1

