@<TRIPOS>MOLECULE
*****
 63 66 0 0 0
SMALL
USER_CHARGES

@<TRIPOS>ATOM
      1 C1          1.9835   -1.6703   -6.5553 C.3     1  LIG1        0.0000
      2 C2          0.8436   -0.7554   -6.9715 C.2     1  LIG1        0.0000
      3 N3          0.2111   -0.7796   -8.1199 N.2     1  LIG1        0.0000
      4 N4         -0.7222    0.1498   -8.1259 N.pl3   1  LIG1        0.0000
      5 C5         -1.6398    0.4180   -9.2456 C.3     1  LIG1        0.0000
      6 C6         -0.7228    0.8284   -6.9441 C.2     1  LIG1        0.0000
      7 C7         -1.6425    1.9790   -6.5684 C.3     1  LIG1        0.0000
      8 C8          0.2676    0.2686   -6.1916 C.2     1  LIG1        0.0000
      9 C9          0.6545    0.6553   -4.8493 C.2     1  LIG1        0.0000
     10 C10         0.1259    0.1276   -3.6526 C.2     1  LIG1        0.0000
     11 C11         0.7780    0.7780   -2.6518 C.2     1  LIG1        0.0000
     12 C12         0.5773    0.5773   -1.2309 C.2     1  LIG1        0.0000
     13 O13        -0.2264   -0.2264   -0.8460 O.2     1  LIG1        0.0000
     14 O14         1.2733    1.2733   -0.3664 O.3     1  LIG1        0.0000
     15 C15         1.0000    1.0000    1.0000 C.3     1  LIG1        0.0000
     16 C16         1.8776    1.8776    1.8776 C.2     1  LIG1        0.0000
     17 O17         2.9588    1.4891    2.2240 O.2     1  LIG1        0.0000
     18 C18         1.4081    3.1843    2.2962 C.2     1  LIG1        0.0000
     19 C19         2.1124    4.1002    3.1104 C.2     1  LIG1        0.0000
     20 C20         1.3073    5.1894    3.2577 C.2     1  LIG1        0.0000
     21 C21         1.6468    6.4388    4.0559 C.3     1  LIG1        0.0000
     22 N22         0.1534    4.9773    2.5692 N.pl3   1  LIG1        0.0000
     23 C23        -0.9728    5.9186    2.4773 C.3     1  LIG1        0.0000
     24 C24        -1.9473    5.6551    3.6136 C.3     1  LIG1        0.0000
     25 C25        -3.1113    6.6279    3.5186 C.3     1  LIG1        0.0000
     26 C26        -3.0325    7.8524    4.1743 C.3     1  LIG1        0.0000
     27 C27        -4.1007    8.7391    4.0850 C.3     1  LIG1        0.0000
     28 C28        -5.2287    8.3971    3.3466 C.3     1  LIG1        0.0000
     29 F29        -6.2502    9.2449    3.2613 F       1  LIG1        0.0000
     30 C30        -5.3075    7.1727    2.6915 C.3     1  LIG1        0.0000
     31 C31        -4.2395    6.2858    2.7810 C.3     1  LIG1        0.0000
     32 C32         0.2113    3.7512    1.9813 C.2     1  LIG1        0.0000
     33 C33        -0.8735    3.1236    1.1208 C.3     1  LIG1        0.0000
     34 N34         1.6492    1.6492   -3.2257 N.pl3   1  LIG1        0.0000
     35 N35         1.5540    1.5562   -4.5362 N.2     1  LIG1        0.0000
     36 H           2.2647    2.2633   -2.7316 H       1  LIG1        0.0000
     37 H           2.2796   -1.4340   -5.6298 H       1  LIG1        0.0000
     38 H           1.6720   -2.6203   -6.5732 H       1  LIG1        0.0000
     39 H           2.7490   -1.5585   -7.1889 H       1  LIG1        0.0000
     40 H          -2.2516    1.1707   -9.0022 H       1  LIG1        0.0000
     41 H          -1.1115    0.6670  -10.0573 H       1  LIG1        0.0000
     42 H          -2.1797   -0.4015   -9.4377 H       1  LIG1        0.0000
     43 H          -1.4263    2.2901   -5.6429 H       1  LIG1        0.0000
     44 H          -1.5130    2.7331   -7.2123 H       1  LIG1        0.0000
     45 H          -2.5932    1.6707   -6.6028 H       1  LIG1        0.0000
     46 H          -0.5790   -0.5756   -3.5598 H       1  LIG1        0.0000
     47 H           1.1925    0.0377    1.1925 H       1  LIG1        0.0000
     48 H           0.0377    1.1925    1.1925 H       1  LIG1        0.0000
     49 H           3.0238    3.9735    3.5019 H       1  LIG1        0.0000
     50 H           2.5545    6.3377    4.4631 H       1  LIG1        0.0000
     51 H           1.6403    7.2338    3.4494 H       1  LIG1        0.0000
     52 H           0.9690    6.5663    4.7799 H       1  LIG1        0.0000
     53 H          -1.4401    5.7947    1.6019 H       1  LIG1        0.0000
     54 H          -0.6301    6.8558    2.5425 H       1  LIG1        0.0000
     55 H          -2.2900    4.7179    3.5484 H       1  LIG1        0.0000
     56 H          -1.4800    5.7790    4.4890 H       1  LIG1        0.0000
     57 H          -2.2183    8.0921    4.7032 H       1  LIG1        0.0000
     58 H          -4.0576    9.6224    4.5517 H       1  LIG1        0.0000
     59 H          -6.1218    6.9329    2.1627 H       1  LIG1        0.0000
     60 H          -4.2829    5.4022    2.3148 H       1  LIG1        0.0000
     61 H          -0.5753    2.2192    0.8155 H       1  LIG1        0.0000
     62 H          -1.7136    3.0345    1.6559 H       1  LIG1        0.0000
     63 H          -1.0453    3.7042    0.3249 H       1  LIG1        0.0000
@<TRIPOS>BOND
     1     1     2    1
     2     2     3    2
     3     3     4    1
     4     4     5    1
     5     4     6    1
     6     6     7    1
     7     6     8    2
     8     8     2    1
     9     8     9    1
    10     9    10    1
    11    10    11    2
    12    11    12    1
    13    12    13    2
    14    12    14    1
    15    14    15    1
    16    15    16    1
    17    16    17    2
    18    16    18    1
    19    18    19    1
    20    19    20    2
    21    20    21    1
    22    20    22    1
    23    22    23    1
    24    23    24    1
    25    24    25    1
    26    25    26   ar
    27    26    27   ar
    28    27    28   ar
    29    28    29    1
    30    28    30   ar
    31    30    31   ar
    32    31    25   ar
    33    22    32    1
    34    32    18    2
    35    32    33    1
    36    11    34    1
    37    34    35    1
    38    35     9    2
    39    34    36    1
    40     1    37    1
    41     1    38    1
    42     1    39    1
    43     5    40    1
    44     5    41    1
    45     5    42    1
    46     7    43    1
    47     7    44    1
    48     7    45    1
    49    10    46    1
    50    15    47    1
    51    15    48    1
    52    19    49    1
    53    21    50    1
    54    21    51    1
    55    21    52    1
    56    23    53    1
    57    23    54    1
    58    24    55    1
    59    24    56    1
    60    26    57    1
    61    27    58    1
    62    30    59    1
    63    31    60    1
    64    33    61    1
    65    33    62    1
    66    33    63    1
