@<TRIPOS>MOLECULE
*****
 63 66 0 0 0
SMALL
USER_CHARGES

@<TRIPOS>ATOM
      1 C1          0.5848    4.2386   -5.9184 C.3     1  LIG1        0.0000
      2 C2          1.8291    3.4281   -6.2416 C.2     1  LIG1        0.0000
      3 N3          2.7484    3.7391   -7.1236 N.2     1  LIG1        0.0000
      4 N4          3.6831    2.8112   -7.1281 N.pl3   1  LIG1        0.0000
      5 C5          4.8800    2.8221   -7.9855 C.3     1  LIG1        0.0000
      6 C6          3.3888    1.8375   -6.2210 C.2     1  LIG1        0.0000
      7 C7          4.2153    0.5938   -5.9368 C.3     1  LIG1        0.0000
      8 C8          2.2106    2.2095   -5.6431 C.2     1  LIG1        0.0000
      9 C9          1.4888    1.4879   -4.6139 C.2     1  LIG1        0.0000
     10 C10         1.6519    1.6501   -3.2221 C.2     1  LIG1        0.0000
     11 C11         0.7780    0.7780   -2.6518 C.2     1  LIG1        0.0000
     12 C12         0.5773    0.5773   -1.2309 C.2     1  LIG1        0.0000
     13 O13        -0.2264   -0.2264   -0.8460 O.2     1  LIG1        0.0000
     14 O14         1.2733    1.2733   -0.3664 O.3     1  LIG1        0.0000
     15 C15         1.0000    1.0000    1.0000 C.3     1  LIG1        0.0000
     16 C16         1.8776    1.8776    1.8776 C.2     1  LIG1        0.0000
     17 O17         2.9588    1.4891    2.2240 O.2     1  LIG1        0.0000
     18 C18         1.4081    3.1843    2.2962 C.2     1  LIG1        0.0000
     19 C19         0.1650    3.7684    1.9626 C.2     1  LIG1        0.0000
     20 C20         0.1385    4.9941    2.5569 C.2     1  LIG1        0.0000
     21 C21        -1.0079    5.9905    2.4783 C.3     1  LIG1        0.0000
     22 N22         1.3029    5.1767    3.2360 N.pl3   1  LIG1        0.0000
     23 C23         1.6613    6.3729    4.0127 C.3     1  LIG1        0.0000
     24 C24         2.3729    7.3682    3.1108 C.3     1  LIG1        0.0000
     25 C25         2.7433    8.6046    3.9136 C.3     1  LIG1        0.0000
     26 C26         1.8442    9.6635    3.9894 C.3     1  LIG1        0.0000
     27 C27         2.1880   10.7933    4.7248 C.3     1  LIG1        0.0000
     28 C28         3.4171   10.8538    5.3730 C.3     1  LIG1        0.0000
     29 F29         3.7459   11.9341    6.0761 F       1  LIG1        0.0000
     30 C30         4.3161    9.7952    5.2967 C.3     1  LIG1        0.0000
     31 C31         3.9724    8.6656    4.5612 C.3     1  LIG1        0.0000
     32 C32         2.0823    4.0722    3.0773 C.2     1  LIG1        0.0000
     33 C33         3.4667    3.8659    3.6706 C.3     1  LIG1        0.0000
     34 N34         0.1293    0.1293   -3.6550 N.pl3   1  LIG1        0.0000
     35 N35         0.5733    0.5711   -4.8138 N.2     1  LIG1        0.0000
     36 H          -0.5732   -0.5717   -3.5326 H       1  LIG1        0.0000
     37 H           0.0578    3.7714   -5.2085 H       1  LIG1        0.0000
     38 H           0.8529    5.1452   -5.5924 H       1  LIG1        0.0000
     39 H           0.0250    4.3325   -6.7417 H       1  LIG1        0.0000
     40 H           5.4310    2.0087   -7.7990 H       1  LIG1        0.0000
     41 H           4.6019    2.8233   -8.9460 H       1  LIG1        0.0000
     42 H           5.4199    3.6417   -7.7937 H       1  LIG1        0.0000
     43 H           3.7679    0.0516   -5.2255 H       1  LIG1        0.0000
     44 H           4.2946    0.0485   -6.7713 H       1  LIG1        0.0000
     45 H           5.1270    0.8631   -5.6267 H       1  LIG1        0.0000
     46 H           2.2775    2.2742   -2.7540 H       1  LIG1        0.0000
     47 H           1.1925    0.0377    1.1925 H       1  LIG1        0.0000
     48 H           0.0377    1.1925    1.1925 H       1  LIG1        0.0000
     49 H          -0.5546    3.3614    1.4001 H       1  LIG1        0.0000
     50 H          -1.7425    5.6099    1.9167 H       1  LIG1        0.0000
     51 H          -1.3531    6.1748    3.3985 H       1  LIG1        0.0000
     52 H          -0.6817    6.8422    2.0679 H       1  LIG1        0.0000
     53 H           2.2665    6.1129    4.7651 H       1  LIG1        0.0000
     54 H           0.8315    6.7916    4.3819 H       1  LIG1        0.0000
     55 H           3.2026    6.9496    2.7417 H       1  LIG1        0.0000
     56 H           1.7677    7.6283    2.3585 H       1  LIG1        0.0000
     57 H           0.9619    9.6132    3.5213 H       1  LIG1        0.0000
     58 H           1.5514   11.5619    4.7873 H       1  LIG1        0.0000
     59 H           5.1983    9.8456    5.7648 H       1  LIG1        0.0000
     60 H           4.6093    7.8972    4.4981 H       1  LIG1        0.0000
     61 H           3.8156    2.9690    3.3988 H       1  LIG1        0.0000
     62 H           4.0827    4.5787    3.3353 H       1  LIG1        0.0000
     63 H           3.4126    3.9143    4.6680 H       1  LIG1        0.0000
@<TRIPOS>BOND
     1     1     2    1
     2     2     3    2
     3     3     4    1
     4     4     5    1
     5     4     6    1
     6     6     7    1
     7     6     8    2
     8     8     2    1
     9     8     9    1
    10     9    10    1
    11    10    11    2
    12    11    12    1
    13    12    13    2
    14    12    14    1
    15    14    15    1
    16    15    16    1
    17    16    17    2
    18    16    18    1
    19    18    19    1
    20    19    20    2
    21    20    21    1
    22    20    22    1
    23    22    23    1
    24    23    24    1
    25    24    25    1
    26    25    26   ar
    27    26    27   ar
    28    27    28   ar
    29    28    29    1
    30    28    30   ar
    31    30    31   ar
    32    31    25   ar
    33    22    32    1
    34    32    18    2
    35    32    33    1
    36    11    34    1
    37    34    35    1
    38    35     9    2
    39    34    36    1
    40     1    37    1
    41     1    38    1
    42     1    39    1
    43     5    40    1
    44     5    41    1
    45     5    42    1
    46     7    43    1
    47     7    44    1
    48     7    45    1
    49    10    46    1
    50    15    47    1
    51    15    48    1
    52    19    49    1
    53    21    50    1
    54    21    51    1
    55    21    52    1
    56    23    53    1
    57    23    54    1
    58    24    55    1
    59    24    56    1
    60    26    57    1
    61    27    58    1
    62    30    59    1
    63    31    60    1
    64    33    61    1
    65    33    62    1
    66    33    63    1
