@<TRIPOS>MOLECULE
*****
 63 66 0 0 0
SMALL
USER_CHARGES

@<TRIPOS>ATOM
      1 C1          4.1707    4.1167   -5.2256 C.3     1  LIG1        0.0000
      2 C2          3.4045    3.0575   -6.0006 C.2     1  LIG1        0.0000
      3 N3          3.7429    2.5515   -7.1622 N.2     1  LIG1        0.0000
      4 N4          2.8502    1.6541   -7.5261 N.pl3   1  LIG1        0.0000
      5 C5          2.8992    0.8709   -8.7718 C.3     1  LIG1        0.0000
      6 C6          1.8729    1.5478   -6.5821 C.2     1  LIG1        0.0000
      7 C7          0.6628    0.6297   -6.6401 C.3     1  LIG1        0.0000
      8 C8          2.2052    2.4334   -5.5994 C.2     1  LIG1        0.0000
      9 C9          1.4649    2.6859   -4.3791 C.2     1  LIG1        0.0000
     10 C10         1.6431    2.0154   -3.1508 C.2     1  LIG1        0.0000
     11 C11         0.7434    2.5763   -2.2991 C.2     1  LIG1        0.0000
     12 C12         0.5457    2.2179   -0.9091 C.2     1  LIG1        0.0000
     13 O13        -0.2844    2.7864   -0.2550 O.2     1  LIG1        0.0000
     14 O14         1.2733    1.2733   -0.3664 O.3     1  LIG1        0.0000
     15 C15         1.0000    1.0000    1.0000 C.3     1  LIG1        0.0000
     16 C16         1.8776    1.8776    1.8776 C.2     1  LIG1        0.0000
     17 O17         2.6482    2.6482    1.3755 O.2     1  LIG1        0.0000
     18 C18         1.7835    1.7835    3.3217 C.2     1  LIG1        0.0000
     19 C19         2.5362    2.5315    4.2553 C.2     1  LIG1        0.0000
     20 C20         2.1362    2.1254    5.4929 C.2     1  LIG1        0.0000
     21 C21         2.6714    2.6563    6.8138 C.3     1  LIG1        0.0000
     22 N22         1.1763    1.1719    5.3517 N.pl3   1  LIG1        0.0000
     23 C23         0.4875    0.4825    6.4531 C.3     1  LIG1        0.0000
     24 C24         1.2618   -0.7701    6.8298 C.3     1  LIG1        0.0000
     25 C25         0.5499   -1.4827    7.9680 C.3     1  LIG1        0.0000
     26 C26         0.8746   -1.1628    9.2825 C.3     1  LIG1        0.0000
     27 C27         0.2208   -1.8182   10.3208 C.3     1  LIG1        0.0000
     28 C28        -0.7442   -2.7793   10.0385 C.3     1  LIG1        0.0000
     29 F29        -1.3693   -3.4062   11.0314 F       1  LIG1        0.0000
     30 C30        -1.0684   -3.0994    8.7243 C.3     1  LIG1        0.0000
     31 C31        -0.4144   -2.4441    7.6859 C.3     1  LIG1        0.0000
     32 C32         0.9594    0.9594    4.0250 C.2     1  LIG1        0.0000
     33 C33        -0.0327   -0.0278    3.4313 C.3     1  LIG1        0.0000
     34 N34         0.0639    3.5312   -2.9877 N.pl3   1  LIG1        0.0000
     35 N35         0.5134    3.5744   -4.2251 N.2     1  LIG1        0.0000
     36 H          -0.6618    4.1090   -2.6142 H       1  LIG1        0.0000
     37 H           3.6895    4.3189   -4.3727 H       1  LIG1        0.0000
     38 H           5.0889    3.7792   -5.0184 H       1  LIG1        0.0000
     39 H           4.2378    4.9490   -5.7759 H       1  LIG1        0.0000
     40 H           2.1082    0.2605   -8.8132 H       1  LIG1        0.0000
     41 H           2.8832    1.4910   -9.5562 H       1  LIG1        0.0000
     42 H           3.7396    0.3293   -8.7922 H       1  LIG1        0.0000
     43 H           0.1096    0.7549   -5.8166 H       1  LIG1        0.0000
     44 H           0.1147    0.8513   -7.4467 H       1  LIG1        0.0000
     45 H           0.9680   -0.3210   -6.6954 H       1  LIG1        0.0000
     46 H           2.2933    1.2829   -2.9491 H       1  LIG1        0.0000
     47 H           1.1925    0.0377    1.1925 H       1  LIG1        0.0000
     48 H           0.0377    1.1925    1.1925 H       1  LIG1        0.0000
     49 H           3.2275    3.2237    4.0481 H       1  LIG1        0.0000
     50 H           3.3695    3.3499    6.6360 H       1  LIG1        0.0000
     51 H           1.9229    3.0634    7.3373 H       1  LIG1        0.0000
     52 H           3.0737    1.9048    7.3367 H       1  LIG1        0.0000
     53 H          -0.4352    0.2292    6.1626 H       1  LIG1        0.0000
     54 H           0.4325    1.0910    7.2447 H       1  LIG1        0.0000
     55 H           1.3169   -1.3787    6.0381 H       1  LIG1        0.0000
     56 H           2.1846   -0.5169    7.1203 H       1  LIG1        0.0000
     57 H           1.5690   -0.4705    9.4784 H       1  LIG1        0.0000
     58 H           0.4446   -1.5984   11.2703 H       1  LIG1        0.0000
     59 H          -1.7627   -3.7918    8.5284 H       1  LIG1        0.0000
     60 H          -0.6378   -2.6645    6.7364 H       1  LIG1        0.0000
     61 H           0.0093    0.0169    2.4332 H       1  LIG1        0.0000
     62 H           0.1963   -0.9531    3.7335 H       1  LIG1        0.0000
     63 H          -0.9564    0.2035    3.7367 H       1  LIG1        0.0000
@<TRIPOS>BOND
     1     1     2    1
     2     2     3    2
     3     3     4    1
     4     4     5    1
     5     4     6    1
     6     6     7    1
     7     6     8    2
     8     8     2    1
     9     8     9    1
    10     9    10    1
    11    10    11    2
    12    11    12    1
    13    12    13    2
    14    12    14    1
    15    14    15    1
    16    15    16    1
    17    16    17    2
    18    16    18    1
    19    18    19    1
    20    19    20    2
    21    20    21    1
    22    20    22    1
    23    22    23    1
    24    23    24    1
    25    24    25    1
    26    25    26   ar
    27    26    27   ar
    28    27    28   ar
    29    28    29    1
    30    28    30   ar
    31    30    31   ar
    32    31    25   ar
    33    22    32    1
    34    32    18    2
    35    32    33    1
    36    11    34    1
    37    34    35    1
    38    35     9    2
    39    34    36    1
    40     1    37    1
    41     1    38    1
    42     1    39    1
    43     5    40    1
    44     5    41    1
    45     5    42    1
    46     7    43    1
    47     7    44    1
    48     7    45    1
    49    10    46    1
    50    15    47    1
    51    15    48    1
    52    19    49    1
    53    21    50    1
    54    21    51    1
    55    21    52    1
    56    23    53    1
    57    23    54    1
    58    24    55    1
    59    24    56    1
    60    26    57    1
    61    27    58    1
    62    30    59    1
    63    31    60    1
    64    33    61    1
    65    33    62    1
    66    33    63    1
