@<TRIPOS>MOLECULE
*****
 63 66 0 0 0
SMALL
USER_CHARGES

@<TRIPOS>ATOM
      1 C1          4.2307    0.5747   -5.9302 C.3     1  LIG1        0.0000
      2 C2          3.4303    1.8289   -6.2399 C.2     1  LIG1        0.0000
      3 N3          3.7448    2.7514   -7.1172 N.2     1  LIG1        0.0000
      4 N4          2.8168    3.6861   -7.1222 N.pl3   1  LIG1        0.0000
      5 C5          2.8254    4.8801   -7.9835 C.3     1  LIG1        0.0000
      6 C6          1.8409    3.3898   -6.2182 C.2     1  LIG1        0.0000
      7 C7          0.6067    4.2260   -5.9210 C.3     1  LIG1        0.0000
      8 C8          2.2106    2.2095   -5.6431 C.2     1  LIG1        0.0000
      9 C9          1.4888    1.4879   -4.6139 C.2     1  LIG1        0.0000
     10 C10         1.6519    1.6501   -3.2221 C.2     1  LIG1        0.0000
     11 C11         0.7780    0.7780   -2.6518 C.2     1  LIG1        0.0000
     12 C12         0.5773    0.5773   -1.2309 C.2     1  LIG1        0.0000
     13 O13        -0.2264   -0.2264   -0.8460 O.2     1  LIG1        0.0000
     14 O14         1.2733    1.2733   -0.3664 O.3     1  LIG1        0.0000
     15 C15         1.0000    1.0000    1.0000 C.3     1  LIG1        0.0000
     16 C16         1.8776    1.8776    1.8776 C.2     1  LIG1        0.0000
     17 O17         1.4891    2.9588    2.2240 O.2     1  LIG1        0.0000
     18 C18         3.1843    1.4081    2.2962 C.2     1  LIG1        0.0000
     19 C19         4.1029    2.1151    3.1049 C.2     1  LIG1        0.0000
     20 C20         5.1957    1.3135    3.2452 C.2     1  LIG1        0.0000
     21 C21         6.4475    1.6556    4.0385 C.3     1  LIG1        0.0000
     22 N22         4.9799    0.1560    2.5641 N.pl3   1  LIG1        0.0000
     23 C23         5.9215   -0.9699    2.4714 C.3     1  LIG1        0.0000
     24 C24         5.6636   -1.9413    3.6117 C.3     1  LIG1        0.0000
     25 C25         6.6368   -3.1049    3.5159 C.3     1  LIG1        0.0000
     26 C26         6.2834   -4.2312    2.7796 C.3     1  LIG1        0.0000
     27 C27         7.1771   -5.2939    2.6954 C.3     1  LIG1        0.0000
     28 C28         8.4064   -5.2217    3.3422 C.3     1  LIG1        0.0000
     29 F29         9.2611   -6.2380    3.2618 F       1  LIG1        0.0000
     30 C30         8.7594   -4.0959    4.0786 C.3     1  LIG1        0.0000
     31 C31         7.8655   -3.0332    4.1630 C.3     1  LIG1        0.0000
     32 C32         3.7512    0.2113    1.9813 C.2     1  LIG1        0.0000
     33 C33         3.1207   -0.8764    1.1265 C.3     1  LIG1        0.0000
     34 N34         0.1293    0.1293   -3.6550 N.pl3   1  LIG1        0.0000
     35 N35         0.5733    0.5711   -4.8138 N.2     1  LIG1        0.0000
     36 H          -0.5732   -0.5717   -3.5326 H       1  LIG1        0.0000
     37 H           3.7627    0.0471   -5.2213 H       1  LIG1        0.0000
     38 H           4.3146    0.0200   -6.7580 H       1  LIG1        0.0000
     39 H           5.1417    0.8319   -5.6076 H       1  LIG1        0.0000
     40 H           2.0125    5.4317   -7.7966 H       1  LIG1        0.0000
     41 H           3.6454    5.4207   -7.7957 H       1  LIG1        0.0000
     42 H           2.8240    4.5989   -8.9432 H       1  LIG1        0.0000
     43 H           0.0604    3.7747   -5.2154 H       1  LIG1        0.0000
     44 H           0.8865    5.1303   -5.5985 H       1  LIG1        0.0000
     45 H           0.0614    4.3230   -6.7536 H       1  LIG1        0.0000
     46 H           2.2775    2.2742   -2.7540 H       1  LIG1        0.0000
     47 H           1.1925    0.0377    1.1925 H       1  LIG1        0.0000
     48 H           0.0377    1.1925    1.1925 H       1  LIG1        0.0000
     49 H           3.9757    3.0260    3.4976 H       1  LIG1        0.0000
     50 H           6.3491    2.5659    4.4405 H       1  LIG1        0.0000
     51 H           6.5754    0.9818    4.7663 H       1  LIG1        0.0000
     52 H           7.2412    1.6438    3.4302 H       1  LIG1        0.0000
     53 H           6.8587   -0.6264    2.5317 H       1  LIG1        0.0000
     54 H           5.7943   -1.4398    1.5979 H       1  LIG1        0.0000
     55 H           5.7908   -1.4714    4.4852 H       1  LIG1        0.0000
     56 H           4.7263   -2.2848    3.5514 H       1  LIG1        0.0000
     57 H           5.3981   -4.2763    2.3167 H       1  LIG1        0.0000
     58 H           6.9358   -6.1097    2.1699 H       1  LIG1        0.0000
     59 H           9.6446   -4.0508    4.5416 H       1  LIG1        0.0000
     60 H           8.1067   -2.2177    4.6891 H       1  LIG1        0.0000
     61 H           2.2149   -0.5796    0.8242 H       1  LIG1        0.0000
     62 H           3.6981   -1.0499    0.3286 H       1  LIG1        0.0000
     63 H           3.0345   -1.7150    1.6643 H       1  LIG1        0.0000
@<TRIPOS>BOND
     1     1     2    1
     2     2     3    2
     3     3     4    1
     4     4     5    1
     5     4     6    1
     6     6     7    1
     7     6     8    2
     8     8     2    1
     9     8     9    1
    10     9    10    1
    11    10    11    2
    12    11    12    1
    13    12    13    2
    14    12    14    1
    15    14    15    1
    16    15    16    1
    17    16    17    2
    18    16    18    1
    19    18    19    1
    20    19    20    2
    21    20    21    1
    22    20    22    1
    23    22    23    1
    24    23    24    1
    25    24    25    1
    26    25    26   ar
    27    26    27   ar
    28    27    28   ar
    29    28    29    1
    30    28    30   ar
    31    30    31   ar
    32    31    25   ar
    33    22    32    1
    34    32    18    2
    35    32    33    1
    36    11    34    1
    37    34    35    1
    38    35     9    2
    39    34    36    1
    40     1    37    1
    41     1    38    1
    42     1    39    1
    43     5    40    1
    44     5    41    1
    45     5    42    1
    46     7    43    1
    47     7    44    1
    48     7    45    1
    49    10    46    1
    50    15    47    1
    51    15    48    1
    52    19    49    1
    53    21    50    1
    54    21    51    1
    55    21    52    1
    56    23    53    1
    57    23    54    1
    58    24    55    1
    59    24    56    1
    60    26    57    1
    61    27    58    1
    62    30    59    1
    63    31    60    1
    64    33    61    1
    65    33    62    1
    66    33    63    1
