@<TRIPOS>MOLECULE
*****
 63 66 0 0 0
SMALL
USER_CHARGES

@<TRIPOS>ATOM
      1 C1          0.6443    0.6122   -6.6400 C.3     1  LIG1        0.0000
      2 C2          1.8657    1.5162   -6.6153 C.2     1  LIG1        0.0000
      3 N3          2.7929    1.5906   -7.5397 N.2     1  LIG1        0.0000
      4 N4          3.6924    2.4858   -7.1872 N.pl3   1  LIG1        0.0000
      5 C5          4.8797    2.8474   -7.9792 C.3     1  LIG1        0.0000
      6 C6          3.3668    3.0363   -5.9837 C.2     1  LIG1        0.0000
      7 C7          4.1588    4.0970   -5.2364 C.3     1  LIG1        0.0000
      8 C8          2.2052    2.4334   -5.5994 C.2     1  LIG1        0.0000
      9 C9          1.4649    2.6859   -4.3791 C.2     1  LIG1        0.0000
     10 C10         1.6431    2.0154   -3.1508 C.2     1  LIG1        0.0000
     11 C11         0.7434    2.5763   -2.2991 C.2     1  LIG1        0.0000
     12 C12         0.5457    2.2179   -0.9091 C.2     1  LIG1        0.0000
     13 O13        -0.2844    2.7864   -0.2550 O.2     1  LIG1        0.0000
     14 O14         1.2733    1.2733   -0.3664 O.3     1  LIG1        0.0000
     15 C15         1.0000    1.0000    1.0000 C.3     1  LIG1        0.0000
     16 C16         1.8776    1.8776    1.8776 C.2     1  LIG1        0.0000
     17 O17         1.4891    2.9588    2.2240 O.2     1  LIG1        0.0000
     18 C18         3.1843    1.4081    2.2962 C.2     1  LIG1        0.0000
     19 C19         3.7656    0.1623    1.9681 C.2     1  LIG1        0.0000
     20 C20         4.9878    0.1322    2.5694 C.2     1  LIG1        0.0000
     21 C21         5.9818   -1.0166    2.4957 C.3     1  LIG1        0.0000
     22 N22         5.1741    1.3004    3.2411 N.pl3   1  LIG1        0.0000
     23 C23         6.3700    1.6584    4.0186 C.3     1  LIG1        0.0000
     24 C24         6.1951    1.1998    5.4571 C.3     1  LIG1        0.0000
     25 C25         7.4311    1.5697    6.2607 C.3     1  LIG1        0.0000
     26 C26         8.4873    0.6679    6.3420 C.3     1  LIG1        0.0000
     27 C27         9.6160    1.0107    7.0792 C.3     1  LIG1        0.0000
     28 C28         9.6788    2.2421    7.7229 C.3     1  LIG1        0.0000
     29 F29        10.7582    2.5700    8.4280 F       1  LIG1        0.0000
     30 C30         8.6226    3.1435    7.6419 C.3     1  LIG1        0.0000
     31 C31         7.4937    2.8005    6.9049 C.3     1  LIG1        0.0000
     32 C32         4.0722    2.0823    3.0773 C.2     1  LIG1        0.0000
     33 C33         3.8687    3.4696    3.6649 C.3     1  LIG1        0.0000
     34 N34         0.0639    3.5312   -2.9877 N.pl3   1  LIG1        0.0000
     35 N35         0.5134    3.5744   -4.2251 N.2     1  LIG1        0.0000
     36 H          -0.6618    4.1090   -2.6142 H       1  LIG1        0.0000
     37 H           0.1049    0.7580   -5.8107 H       1  LIG1        0.0000
     38 H           0.0870    0.8267   -7.4422 H       1  LIG1        0.0000
     39 H           0.9374   -0.3429   -6.6835 H       1  LIG1        0.0000
     40 H           5.4022    3.5493   -7.4952 H       1  LIG1        0.0000
     41 H           5.4517    2.0377   -8.1111 H       1  LIG1        0.0000
     42 H           4.5917    3.2006   -8.8693 H       1  LIG1        0.0000
     43 H           3.6928    4.3193   -4.3800 H       1  LIG1        0.0000
     44 H           5.0752    3.7498   -5.0369 H       1  LIG1        0.0000
     45 H           4.2295    4.9195   -5.8007 H       1  LIG1        0.0000
     46 H           2.2933    1.2829   -2.9491 H       1  LIG1        0.0000
     47 H           1.1925    0.0377    1.1925 H       1  LIG1        0.0000
     48 H           0.0377    1.1925    1.1925 H       1  LIG1        0.0000
     49 H           3.3592   -0.5568    1.4044 H       1  LIG1        0.0000
     50 H           5.5985   -1.7538    1.9394 H       1  LIG1        0.0000
     51 H           6.8332   -0.6946    2.0816 H       1  LIG1        0.0000
     52 H           6.1673   -1.3566    3.4176 H       1  LIG1        0.0000
     53 H           6.4965    2.6501    3.9979 H       1  LIG1        0.0000
     54 H           7.1718    1.2117    3.6215 H       1  LIG1        0.0000
     55 H           5.3933    1.6464    5.8542 H       1  LIG1        0.0000
     56 H           6.0686    0.2080    5.4778 H       1  LIG1        0.0000
     57 H           8.4357   -0.2156    5.8763 H       1  LIG1        0.0000
     58 H          10.3824    0.3718    7.1464 H       1  LIG1        0.0000
     59 H           8.6741    4.0269    8.1077 H       1  LIG1        0.0000
     60 H           6.7271    3.4392    6.8383 H       1  LIG1        0.0000
     61 H           2.9733    3.8199    3.3901 H       1  LIG1        0.0000
     62 H           3.9151    3.4191    4.6626 H       1  LIG1        0.0000
     63 H           4.5839    4.0823    3.3286 H       1  LIG1        0.0000
@<TRIPOS>BOND
     1     1     2    1
     2     2     3    2
     3     3     4    1
     4     4     5    1
     5     4     6    1
     6     6     7    1
     7     6     8    2
     8     8     2    1
     9     8     9    1
    10     9    10    1
    11    10    11    2
    12    11    12    1
    13    12    13    2
    14    12    14    1
    15    14    15    1
    16    15    16    1
    17    16    17    2
    18    16    18    1
    19    18    19    1
    20    19    20    2
    21    20    21    1
    22    20    22    1
    23    22    23    1
    24    23    24    1
    25    24    25    1
    26    25    26   ar
    27    26    27   ar
    28    27    28   ar
    29    28    29    1
    30    28    30   ar
    31    30    31   ar
    32    31    25   ar
    33    22    32    1
    34    32    18    2
    35    32    33    1
    36    11    34    1
    37    34    35    1
    38    35     9    2
    39    34    36    1
    40     1    37    1
    41     1    38    1
    42     1    39    1
    43     5    40    1
    44     5    41    1
    45     5    42    1
    46     7    43    1
    47     7    44    1
    48     7    45    1
    49    10    46    1
    50    15    47    1
    51    15    48    1
    52    19    49    1
    53    21    50    1
    54    21    51    1
    55    21    52    1
    56    23    53    1
    57    23    54    1
    58    24    55    1
    59    24    56    1
    60    26    57    1
    61    27    58    1
    62    30    59    1
    63    31    60    1
    64    33    61    1
    65    33    62    1
    66    33    63    1
