@<TRIPOS>MOLECULE
*****
 63 66 0 0 0
SMALL
USER_CHARGES

@<TRIPOS>ATOM
      1 C1          0.5848    4.2386   -5.9184 C.3     1  LIG1        0.0000
      2 C2          1.8291    3.4281   -6.2416 C.2     1  LIG1        0.0000
      3 N3          2.7484    3.7391   -7.1236 N.2     1  LIG1        0.0000
      4 N4          3.6831    2.8112   -7.1281 N.pl3   1  LIG1        0.0000
      5 C5          4.8800    2.8221   -7.9855 C.3     1  LIG1        0.0000
      6 C6          3.3888    1.8375   -6.2210 C.2     1  LIG1        0.0000
      7 C7          4.2153    0.5938   -5.9368 C.3     1  LIG1        0.0000
      8 C8          2.2106    2.2095   -5.6431 C.2     1  LIG1        0.0000
      9 C9          1.4888    1.4879   -4.6139 C.2     1  LIG1        0.0000
     10 C10         1.6519    1.6501   -3.2221 C.2     1  LIG1        0.0000
     11 C11         0.7780    0.7780   -2.6518 C.2     1  LIG1        0.0000
     12 C12         0.5773    0.5773   -1.2309 C.2     1  LIG1        0.0000
     13 O13        -0.2264   -0.2264   -0.8460 O.2     1  LIG1        0.0000
     14 O14         1.2733    1.2733   -0.3664 O.3     1  LIG1        0.0000
     15 C15         1.0000    1.0000    1.0000 C.3     1  LIG1        0.0000
     16 C16         1.8776    1.8776    1.8776 C.2     1  LIG1        0.0000
     17 O17         1.4891    2.9588    2.2240 O.2     1  LIG1        0.0000
     18 C18         3.1843    1.4081    2.2962 C.2     1  LIG1        0.0000
     19 C19         4.1029    2.1151    3.1049 C.2     1  LIG1        0.0000
     20 C20         5.1957    1.3135    3.2452 C.2     1  LIG1        0.0000
     21 C21         6.4475    1.6556    4.0385 C.3     1  LIG1        0.0000
     22 N22         4.9799    0.1560    2.5641 N.pl3   1  LIG1        0.0000
     23 C23         5.9215   -0.9699    2.4714 C.3     1  LIG1        0.0000
     24 C24         6.8283   -0.7742    1.2673 C.3     1  LIG1        0.0000
     25 C25         7.8015   -1.9378    1.1715 C.3     1  LIG1        0.0000
     26 C26         9.0287   -1.8562    1.8218 C.3     1  LIG1        0.0000
     27 C27         9.9163   -2.9235    1.7306 C.3     1  LIG1        0.0000
     28 C28         9.5720   -4.0537    0.9967 C.3     1  LIG1        0.0000
     29 F29        10.4208   -5.0743    0.9094 F       1  LIG1        0.0000
     30 C30         8.3453   -4.1349    0.3463 C.3     1  LIG1        0.0000
     31 C31         7.4577   -3.0676    0.4373 C.3     1  LIG1        0.0000
     32 C32         3.7512    0.2113    1.9813 C.2     1  LIG1        0.0000
     33 C33         3.1207   -0.8764    1.1265 C.3     1  LIG1        0.0000
     34 N34         0.1293    0.1293   -3.6550 N.pl3   1  LIG1        0.0000
     35 N35         0.5733    0.5711   -4.8138 N.2     1  LIG1        0.0000
     36 H          -0.5732   -0.5717   -3.5326 H       1  LIG1        0.0000
     37 H           0.0578    3.7714   -5.2085 H       1  LIG1        0.0000
     38 H           0.8529    5.1452   -5.5924 H       1  LIG1        0.0000
     39 H           0.0250    4.3325   -6.7417 H       1  LIG1        0.0000
     40 H           5.4310    2.0087   -7.7990 H       1  LIG1        0.0000
     41 H           4.6019    2.8233   -8.9460 H       1  LIG1        0.0000
     42 H           5.4199    3.6417   -7.7937 H       1  LIG1        0.0000
     43 H           3.7679    0.0516   -5.2255 H       1  LIG1        0.0000
     44 H           4.2946    0.0485   -6.7713 H       1  LIG1        0.0000
     45 H           5.1270    0.8631   -5.6267 H       1  LIG1        0.0000
     46 H           2.2775    2.2742   -2.7540 H       1  LIG1        0.0000
     47 H           1.1925    0.0377    1.1925 H       1  LIG1        0.0000
     48 H           0.0377    1.1925    1.1925 H       1  LIG1        0.0000
     49 H           3.9757    3.0260    3.4976 H       1  LIG1        0.0000
     50 H           6.3491    2.5659    4.4405 H       1  LIG1        0.0000
     51 H           6.5754    0.9818    4.7663 H       1  LIG1        0.0000
     52 H           7.2412    1.6438    3.4302 H       1  LIG1        0.0000
     53 H           5.4111   -1.8237    2.3691 H       1  LIG1        0.0000
     54 H           6.4756   -1.0103    3.3029 H       1  LIG1        0.0000
     55 H           6.2742   -0.7337    0.4359 H       1  LIG1        0.0000
     56 H           7.3386    0.0797    1.3697 H       1  LIG1        0.0000
     57 H           9.2696   -1.0408    2.3481 H       1  LIG1        0.0000
     58 H          10.8019   -2.8780    2.1927 H       1  LIG1        0.0000
     59 H           8.1043   -4.9503   -0.1802 H       1  LIG1        0.0000
     60 H           6.5723   -3.1128   -0.0254 H       1  LIG1        0.0000
     61 H           2.2149   -0.5796    0.8242 H       1  LIG1        0.0000
     62 H           3.6981   -1.0499    0.3286 H       1  LIG1        0.0000
     63 H           3.0345   -1.7150    1.6643 H       1  LIG1        0.0000
@<TRIPOS>BOND
     1     1     2    1
     2     2     3    2
     3     3     4    1
     4     4     5    1
     5     4     6    1
     6     6     7    1
     7     6     8    2
     8     8     2    1
     9     8     9    1
    10     9    10    1
    11    10    11    2
    12    11    12    1
    13    12    13    2
    14    12    14    1
    15    14    15    1
    16    15    16    1
    17    16    17    2
    18    16    18    1
    19    18    19    1
    20    19    20    2
    21    20    21    1
    22    20    22    1
    23    22    23    1
    24    23    24    1
    25    24    25    1
    26    25    26   ar
    27    26    27   ar
    28    27    28   ar
    29    28    29    1
    30    28    30   ar
    31    30    31   ar
    32    31    25   ar
    33    22    32    1
    34    32    18    2
    35    32    33    1
    36    11    34    1
    37    34    35    1
    38    35     9    2
    39    34    36    1
    40     1    37    1
    41     1    38    1
    42     1    39    1
    43     5    40    1
    44     5    41    1
    45     5    42    1
    46     7    43    1
    47     7    44    1
    48     7    45    1
    49    10    46    1
    50    15    47    1
    51    15    48    1
    52    19    49    1
    53    21    50    1
    54    21    51    1
    55    21    52    1
    56    23    53    1
    57    23    54    1
    58    24    55    1
    59    24    56    1
    60    26    57    1
    61    27    58    1
    62    30    59    1
    63    31    60    1
    64    33    61    1
    65    33    62    1
    66    33    63    1
