@<TRIPOS>MOLECULE

  62   66
SMALL
USER_CHARGES
@<TRIPOS>ATOM
   1 C1          -0.0548     5.9407     1.0015 C.3          1    LIG   0.0000
   2 C2          -0.1861     4.4263     1.0012 C.2          1    LIG   0.0000
   3 C3           0.8521     3.5453     1.0010 C.2          1    LIG   0.0000
   4 C4           0.2748     2.2561     1.0000 C.2          1    LIG   0.0000
   5 C5           1.0000     1.0000     1.0000 C.2          1    LIG   0.0000
   6 O6           0.4000    -0.0392     1.0000 O.2          1    LIG   0.0000
   7 C7           2.5200     1.0000     1.0000 C.3          1    LIG   0.0000
   8 O8           2.9933    -0.3388     1.0000 O.3          1    LIG   0.0000
   9 C9           4.2961    -0.4764     1.0000 C.2          1    LIG   0.0000
  10 O10          5.0019     0.4941     1.0000 O.2          1    LIG   0.0000
  11 C11          4.8853    -1.8016     1.0000 C.2          1    LIG   0.0000
  12 C12          4.1762    -3.0211     1.0018 C.2          1    LIG   0.0000
  13 C13          5.1281    -3.9925     1.0003 C.2          1    LIG   0.0000
  14 C14          4.8889    -5.4222     1.0012 C.2          1    LIG   0.0000
  15 C15          3.6314    -6.0631     1.0018 C.2          1    LIG   0.0000
  16 C16          3.8977    -7.3969     0.9966 C.2          1    LIG   0.0000
  17 O17          5.2010    -7.5503     0.9954 O.2          1    LIG   0.0000
  18 C18          5.8367    -6.4017     1.0008 C.2          1    LIG   0.0000
  19 N19          6.3417    -3.3803     0.9990 N.pl3        1    LIG   0.0000
  20 N20          6.1675    -2.0746     1.0000 N.2          1    LIG   0.0000
  21 C21         -1.0774     2.4030     1.0000 C.2          1    LIG   0.0000
  22 C22         -2.0978     1.2773     1.0002 C.3          1    LIG   0.0000
  23 N23         -1.3581     3.7325     0.9991 N.pl3        1    LIG   0.0000
  24 C24         -2.6400     4.2956     0.9958 C.2          1    LIG   0.0000
  25 C25         -3.3867     4.6226     2.0837 C.2          1    LIG   0.0000
  26 C26         -2.9789     4.4387     3.5372 C.3          1    LIG   0.0000
  27 N27         -4.5631     5.1467     1.6419 N.pl3        1    LIG   0.0000
  28 C28         -5.6505     5.6272     2.5069 C.3          1    LIG   0.0000
  29 N29         -4.5753     5.1557     0.3300 N.pl3        1    LIG   0.0000
  30 C30         -5.6276     5.6245    -0.4660 C.ar         1    LIG   0.0000
  31 C31         -6.6349     4.7499    -0.8604 C.ar         1    LIG   0.0000
  32 C32         -7.6759     5.2240    -1.6516 C.ar         1    LIG   0.0000
  33 C33         -7.7024     6.5600    -2.0402 C.ar         1    LIG   0.0000
  34 C34         -6.6910     7.4276    -1.6410 C.ar         1    LIG   0.0000
  35 C35         -5.6458     6.9614    -0.8500 C.ar         1    LIG   0.0000
  36 C36         -3.4079     4.6366    -0.1362 C.2          1    LIG   0.0000
  37 O37         -3.0823     4.4947    -1.3049 O.2          1    LIG   0.0000
  38 H            7.2261    -3.8469     0.9975 H            1    LIG   0.0000
  39 H            0.9133     6.1913     1.0033 H            1    LIG   0.0000
  40 H           -0.4941     6.3135     0.1842 H            1    LIG   0.0000
  41 H           -0.4971     6.3135     1.8172 H            1    LIG   0.0000
  42 H            1.8273     3.7665     1.0014 H            1    LIG   0.0000
  43 H            2.8533     1.4714     0.1835 H            1    LIG   0.0000
  44 H            2.8533     1.4714     1.8165 H            1    LIG   0.0000
  45 H            3.1840    -3.1451     1.0038 H            1    LIG   0.0000
  46 H            2.7314    -5.6271     1.0054 H            1    LIG   0.0000
  47 H            3.2194    -8.1317     0.9942 H            1    LIG   0.0000
  48 H            6.8280    -6.2704     1.0042 H            1    LIG   0.0000
  49 H           -1.6231     0.3972     1.0009 H            1    LIG   0.0000
  50 H           -2.6713     1.3474     1.8163 H            1    LIG   0.0000
  51 H           -2.6705     1.3464     0.1833 H            1    LIG   0.0000
  52 H           -2.0660     4.0325     3.5785 H            1    LIG   0.0000
  53 H           -2.9693     5.3274     3.9957 H            1    LIG   0.0000
  54 H           -3.6331     3.8354     3.9933 H            1    LIG   0.0000
  55 H           -5.3908     5.5093     3.4653 H            1    LIG   0.0000
  56 H           -5.8188     6.5958     2.3238 H            1    LIG   0.0000
  57 H           -6.4815     5.1034     2.3198 H            1    LIG   0.0000
  58 H           -6.6108     3.7909    -0.5780 H            1    LIG   0.0000
  59 H           -8.4055     4.6046    -1.9415 H            1    LIG   0.0000
  60 H           -8.4522     6.8980    -2.6090 H            1    LIG   0.0000
  61 H           -6.7153     8.3868    -1.9226 H            1    LIG   0.0000
  62 H           -4.9157     7.5805    -0.5607 H            1    LIG   0.0000
@<TRIPOS>BOND
   1        1        2 1
   2        2        3 2
   3        3        4 1
   4        4        5 1
   5        5        6 2
   6        5        7 1
   7        7        8 1
   8        8        9 1
   9        9       10 2
  10        9       11 1
  11       11       12 1
  12       12       13 2
  13       13       14 1
  14       14       15 1
  15       15       16 2
  16       16       17 1
  17       17       18 1
  18       18       14 2
  19       13       19 1
  20       19       20 1
  21       20       11 2
  22        4       21 2
  23       21       22 1
  24       21       23 1
  25       23        2 1
  26       23       24 1
  27       24       25 2
  28       25       26 1
  29       25       27 1
  30       27       28 1
  31       27       29 1
  32       29       30 1
  33       30       31 ar
  34       31       32 ar
  35       32       33 ar
  36       33       34 ar
  37       34       35 ar
  38       35       30 ar
  39       29       36 1
  40       36       24 1
  41       36       37 2
  42       19       38 1
  43        1       39 1
  44        1       40 1
  45        1       41 1
  46        3       42 1
  47        7       43 1
  48        7       44 1
  49       12       45 1
  50       15       46 1
  51       16       47 1
  52       18       48 1
  53       22       49 1
  54       22       50 1
  55       22       51 1
  56       26       52 1
  57       26       53 1
  58       26       54 1
  59       28       55 1
  60       28       56 1
  61       28       57 1
  62       31       58 1
  63       32       59 1
  64       33       60 1
  65       34       61 1
  66       35       62 1

@<TRIPOS>MOLECULE

  62   66
SMALL
USER_CHARGES
@<TRIPOS>ATOM
   1 C1          -0.0548     5.9407     1.0015 C.3          1    LIG   0.0000
   2 C2          -0.1861     4.4263     1.0012 C.2          1    LIG   0.0000
   3 C3           0.8521     3.5453     1.0010 C.2          1    LIG   0.0000
   4 C4           0.2748     2.2561     1.0000 C.2          1    LIG   0.0000
   5 C5           1.0000     1.0000     1.0000 C.2          1    LIG   0.0000
   6 O6           0.4000    -0.0392     1.0000 O.2          1    LIG   0.0000
   7 C7           2.5200     1.0000     1.0000 C.3          1    LIG   0.0000
   8 O8           2.9933    -0.3388     1.0000 O.3          1    LIG   0.0000
   9 C9           4.2961    -0.4764     1.0000 C.2          1    LIG   0.0000
  10 O10          5.0019     0.4941     1.0000 O.2          1    LIG   0.0000
  11 C11          4.8853    -1.8016     1.0000 C.2          1    LIG   0.0000
  12 C12          4.1762    -3.0211     1.0018 C.2          1    LIG   0.0000
  13 C13          5.1281    -3.9925     1.0003 C.2          1    LIG   0.0000
  14 C14          4.8889    -5.4222     1.0012 C.2          1    LIG   0.0000
  15 C15          3.6314    -6.0631     1.0018 C.2          1    LIG   0.0000
  16 C16          3.8977    -7.3969     0.9966 C.2          1    LIG   0.0000
  17 O17          5.2010    -7.5503     0.9954 O.2          1    LIG   0.0000
  18 C18          5.8367    -6.4017     1.0008 C.2          1    LIG   0.0000
  19 N19          6.3417    -3.3803     0.9990 N.pl3        1    LIG   0.0000
  20 N20          6.1675    -2.0746     1.0000 N.2          1    LIG   0.0000
  21 C21         -1.0774     2.4030     1.0000 C.2          1    LIG   0.0000
  22 C22         -2.0978     1.2773     1.0002 C.3          1    LIG   0.0000
  23 N23         -1.3581     3.7325     0.9991 N.pl3        1    LIG   0.0000
  24 C24         -2.6400     4.2956     0.9958 C.2          1    LIG   0.0000
  25 C25         -3.3813     4.6222    -0.0960 C.2          1    LIG   0.0000
  26 C26         -2.9638     4.4435    -1.5474 C.3          1    LIG   0.0000
  27 N27         -4.5650     5.1347     0.3398 N.pl3        1    LIG   0.0000
  28 C28         -5.6508     5.6088    -0.5307 C.3          1    LIG   0.0000
  29 N29         -4.5856     5.1401     1.6516 N.pl3        1    LIG   0.0000
  30 C30         -5.6461     5.5994     2.4422 C.ar         1    LIG   0.0000
  31 C31         -5.6852     6.9335     2.8339 C.ar         1    LIG   0.0000
  32 C32         -6.7420     7.3809     3.6198 C.ar         1    LIG   0.0000
  33 C33         -7.7454     6.4973     4.0057 C.ar         1    LIG   0.0000
  34 C34         -7.6984     5.1648     3.6092 C.ar         1    LIG   0.0000
  35 C35         -6.6445     4.7090     2.8236 C.ar         1    LIG   0.0000
  36 C36         -3.4155     4.6325     2.1238 C.2          1    LIG   0.0000
  37 O37         -3.0958     4.4909     3.2941 O.2          1    LIG   0.0000
  38 H            7.2261    -3.8469     0.9975 H            1    LIG   0.0000
  39 H            0.9133     6.1913     1.0033 H            1    LIG   0.0000
  40 H           -0.4941     6.3135     0.1842 H            1    LIG   0.0000
  41 H           -0.4971     6.3135     1.8172 H            1    LIG   0.0000
  42 H            1.8273     3.7665     1.0014 H            1    LIG   0.0000
  43 H            2.8533     1.4714     0.1835 H            1    LIG   0.0000
  44 H            2.8533     1.4714     1.8165 H            1    LIG   0.0000
  45 H            3.1840    -3.1451     1.0038 H            1    LIG   0.0000
  46 H            2.7314    -5.6271     1.0054 H            1    LIG   0.0000
  47 H            3.2194    -8.1317     0.9942 H            1    LIG   0.0000
  48 H            6.8280    -6.2704     1.0042 H            1    LIG   0.0000
  49 H           -1.6231     0.3972     1.0009 H            1    LIG   0.0000
  50 H           -2.6713     1.3474     1.8163 H            1    LIG   0.0000
  51 H           -2.6705     1.3464     0.1833 H            1    LIG   0.0000
  52 H           -2.0469     4.0460    -1.5840 H            1    LIG   0.0000
  53 H           -3.6097     3.8344    -2.0075 H            1    LIG   0.0000
  54 H           -2.9602     5.3326    -2.0051 H            1    LIG   0.0000
  55 H           -5.3842     5.4955    -1.4879 H            1    LIG   0.0000
  56 H           -6.4787     5.0777    -0.3503 H            1    LIG   0.0000
  57 H           -5.8280     6.5755    -0.3462 H            1    LIG   0.0000
  58 H           -4.9615     7.5641     2.5535 H            1    LIG   0.0000
  59 H           -6.7807     8.3378     3.9076 H            1    LIG   0.0000
  60 H           -8.5040     6.8219     4.5707 H            1    LIG   0.0000
  61 H           -8.4224     4.5343     3.8889 H            1    LIG   0.0000
  62 H           -6.6052     3.7520     2.5362 H            1    LIG   0.0000
@<TRIPOS>BOND
   1        1        2 1
   2        2        3 2
   3        3        4 1
   4        4        5 1
   5        5        6 2
   6        5        7 1
   7        7        8 1
   8        8        9 1
   9        9       10 2
  10        9       11 1
  11       11       12 1
  12       12       13 2
  13       13       14 1
  14       14       15 1
  15       15       16 2
  16       16       17 1
  17       17       18 1
  18       18       14 2
  19       13       19 1
  20       19       20 1
  21       20       11 2
  22        4       21 2
  23       21       22 1
  24       21       23 1
  25       23        2 1
  26       23       24 1
  27       24       25 2
  28       25       26 1
  29       25       27 1
  30       27       28 1
  31       27       29 1
  32       29       30 1
  33       30       31 ar
  34       31       32 ar
  35       32       33 ar
  36       33       34 ar
  37       34       35 ar
  38       35       30 ar
  39       29       36 1
  40       36       24 1
  41       36       37 2
  42       19       38 1
  43        1       39 1
  44        1       40 1
  45        1       41 1
  46        3       42 1
  47        7       43 1
  48        7       44 1
  49       12       45 1
  50       15       46 1
  51       16       47 1
  52       18       48 1
  53       22       49 1
  54       22       50 1
  55       22       51 1
  56       26       52 1
  57       26       53 1
  58       26       54 1
  59       28       55 1
  60       28       56 1
  61       28       57 1
  62       31       58 1
  63       32       59 1
  64       33       60 1
  65       34       61 1
  66       35       62 1

@<TRIPOS>MOLECULE

  62   66
SMALL
USER_CHARGES
@<TRIPOS>ATOM
   1 C1          -2.7514     4.3838     0.9985 C.3          1    LIG   0.0000
   2 C2          -1.3742     3.7404     0.9988 C.2          1    LIG   0.0000
   3 C3          -1.1304     2.4007     0.9990 C.2          1    LIG   0.0000
   4 C4           0.2748     2.2561     1.0000 C.2          1    LIG   0.0000
   5 C5           1.0000     1.0000     1.0000 C.2          1    LIG   0.0000
   6 O6           0.4000    -0.0392     1.0000 O.2          1    LIG   0.0000
   7 C7           2.5200     1.0000     1.0000 C.3          1    LIG   0.0000
   8 O8           2.9933    -0.3388     1.0000 O.3          1    LIG   0.0000
   9 C9           4.2961    -0.4764     1.0000 C.2          1    LIG   0.0000
  10 O10          5.0019     0.4941     1.0000 O.2          1    LIG   0.0000
  11 C11          4.8853    -1.8016     1.0000 C.2          1    LIG   0.0000
  12 C12          4.1762    -3.0211     1.0018 C.2          1    LIG   0.0000
  13 C13          5.1281    -3.9925     1.0003 C.2          1    LIG   0.0000
  14 C14          4.8889    -5.4222     1.0012 C.2          1    LIG   0.0000
  15 C15          3.6314    -6.0631     1.0018 C.2          1    LIG   0.0000
  16 C16          3.8977    -7.3969     0.9966 C.2          1    LIG   0.0000
  17 O17          5.2010    -7.5503     0.9954 O.2          1    LIG   0.0000
  18 C18          5.8367    -6.4017     1.0008 C.2          1    LIG   0.0000
  19 N19          6.3417    -3.3803     0.9990 N.pl3        1    LIG   0.0000
  20 N20          6.1675    -2.0746     1.0000 N.2          1    LIG   0.0000
  21 C21          0.8236     3.5006     1.0000 C.2          1    LIG   0.0000
  22 C22          2.3087     3.8214     0.9998 C.3          1    LIG   0.0000
  23 N23         -0.1874     4.4084     1.0009 N.pl3        1    LIG   0.0000
  24 C24         -0.0341     5.8001     1.0042 C.2          1    LIG   0.0000
  25 C25          0.0561     6.6103    -0.0837 C.2          1    LIG   0.0000
  26 C26          0.0114     6.1652    -1.5372 C.3          1    LIG   0.0000
  27 N27          0.1904     7.8911     0.3581 N.pl3        1    LIG   0.0000
  28 C28          0.3179     9.0731    -0.5069 C.3          1    LIG   0.0000
  29 N29          0.1887     7.9062     1.6700 N.pl3        1    LIG   0.0000
  30 C30          0.3089     9.0519     2.4660 C.ar         1    LIG   0.0000
  31 C31          1.5699     9.4869     2.8604 C.ar         1    LIG   0.0000
  32 C32          1.6798    10.6255     3.6516 C.ar         1    LIG   0.0000
  33 C33          0.5361    11.3165     4.0402 C.ar         1    LIG   0.0000
  34 C34         -0.7210    10.8745     3.6410 C.ar         1    LIG   0.0000
  35 C35         -0.8398     9.7361     2.8500 C.ar         1    LIG   0.0000
  36 C36          0.0545     6.6357     2.1362 C.2          1    LIG   0.0000
  37 O37          0.0146     6.2828     3.3049 O.2          1    LIG   0.0000
  38 H            7.2261    -3.8469     0.9975 H            1    LIG   0.0000
  39 H           -3.4525     3.6707     0.9967 H            1    LIG   0.0000
  40 H           -2.8546     4.9507     1.8158 H            1    LIG   0.0000
  41 H           -2.8530     4.9533     0.1828 H            1    LIG   0.0000
  42 H           -1.8096     1.6668     0.9986 H            1    LIG   0.0000
  43 H            2.8533     1.4714     0.1835 H            1    LIG   0.0000
  44 H            2.8533     1.4714     1.8165 H            1    LIG   0.0000
  45 H            3.1840    -3.1451     1.0038 H            1    LIG   0.0000
  46 H            2.7314    -5.6271     1.0054 H            1    LIG   0.0000
  47 H            3.2194    -8.1317     0.9942 H            1    LIG   0.0000
  48 H            6.8280    -6.2704     1.0042 H            1    LIG   0.0000
  49 H            2.8336     2.9702     0.9991 H            1    LIG   0.0000
  50 H            2.5348     4.3532     0.1837 H            1    LIG   0.0000
  51 H            2.5352     4.3519     1.8167 H            1    LIG   0.0000
  52 H           -0.0932     5.1715    -1.5785 H            1    LIG   0.0000
  53 H           -0.7630     6.6012    -1.9957 H            1    LIG   0.0000
  54 H            0.8610     6.4301    -1.9933 H            1    LIG   0.0000
  55 H            0.2902     8.7893    -1.4653 H            1    LIG   0.0000
  56 H           -0.4368     9.7031    -0.3238 H            1    LIG   0.0000
  57 H            1.1871     9.5308    -0.3198 H            1    LIG   0.0000
  58 H            2.3884     8.9866     2.5780 H            1    LIG   0.0000
  59 H            2.5810    10.9477     3.9415 H            1    LIG   0.0000
  60 H            0.6183    12.1348     4.6090 H            1    LIG   0.0000
  61 H           -1.5395    11.3751     3.9226 H            1    LIG   0.0000
  62 H           -1.7410     9.4133     2.5607 H            1    LIG   0.0000
@<TRIPOS>BOND
   1        1        2 1
   2        2        3 2
   3        3        4 1
   4        4        5 1
   5        5        6 2
   6        5        7 1
   7        7        8 1
   8        8        9 1
   9        9       10 2
  10        9       11 1
  11       11       12 1
  12       12       13 2
  13       13       14 1
  14       14       15 1
  15       15       16 2
  16       16       17 1
  17       17       18 1
  18       18       14 2
  19       13       19 1
  20       19       20 1
  21       20       11 2
  22        4       21 2
  23       21       22 1
  24       21       23 1
  25       23        2 1
  26       23       24 1
  27       24       25 2
  28       25       26 1
  29       25       27 1
  30       27       28 1
  31       27       29 1
  32       29       30 1
  33       30       31 ar
  34       31       32 ar
  35       32       33 ar
  36       33       34 ar
  37       34       35 ar
  38       35       30 ar
  39       29       36 1
  40       36       24 1
  41       36       37 2
  42       19       38 1
  43        1       39 1
  44        1       40 1
  45        1       41 1
  46        3       42 1
  47        7       43 1
  48        7       44 1
  49       12       45 1
  50       15       46 1
  51       16       47 1
  52       18       48 1
  53       22       49 1
  54       22       50 1
  55       22       51 1
  56       26       52 1
  57       26       53 1
  58       26       54 1
  59       28       55 1
  60       28       56 1
  61       28       57 1
  62       31       58 1
  63       32       59 1
  64       33       60 1
  65       34       61 1
  66       35       62 1

@<TRIPOS>MOLECULE

  62   66
SMALL
USER_CHARGES
@<TRIPOS>ATOM
   1 C1          -2.7514     4.3838     0.9985 C.3          1    LIG   0.0000
   2 C2          -1.3742     3.7404     0.9988 C.2          1    LIG   0.0000
   3 C3          -1.1304     2.4007     0.9990 C.2          1    LIG   0.0000
   4 C4           0.2748     2.2561     1.0000 C.2          1    LIG   0.0000
   5 C5           1.0000     1.0000     1.0000 C.2          1    LIG   0.0000
   6 O6           0.4000    -0.0392     1.0000 O.2          1    LIG   0.0000
   7 C7           2.5200     1.0000     1.0000 C.3          1    LIG   0.0000
   8 O8           2.9933    -0.3388     1.0000 O.3          1    LIG   0.0000
   9 C9           4.2961    -0.4764     1.0000 C.2          1    LIG   0.0000
  10 O10          5.0019     0.4941     1.0000 O.2          1    LIG   0.0000
  11 C11          4.8853    -1.8016     1.0000 C.2          1    LIG   0.0000
  12 C12          4.1762    -3.0211     1.0018 C.2          1    LIG   0.0000
  13 C13          5.1281    -3.9925     1.0003 C.2          1    LIG   0.0000
  14 C14          4.8889    -5.4222     1.0012 C.2          1    LIG   0.0000
  15 C15          3.6314    -6.0631     1.0018 C.2          1    LIG   0.0000
  16 C16          3.8977    -7.3969     0.9966 C.2          1    LIG   0.0000
  17 O17          5.2010    -7.5503     0.9954 O.2          1    LIG   0.0000
  18 C18          5.8367    -6.4017     1.0008 C.2          1    LIG   0.0000
  19 N19          6.3417    -3.3803     0.9990 N.pl3        1    LIG   0.0000
  20 N20          6.1675    -2.0746     1.0000 N.2          1    LIG   0.0000
  21 C21          0.8236     3.5006     1.0000 C.2          1    LIG   0.0000
  22 C22          2.3087     3.8214     0.9998 C.3          1    LIG   0.0000
  23 N23         -0.1874     4.4084     1.0009 N.pl3        1    LIG   0.0000
  24 C24         -0.0341     5.8001     1.0042 C.2          1    LIG   0.0000
  25 C25          0.0538     6.6054     2.0960 C.2          1    LIG   0.0000
  26 C26         -0.0003     6.1545     3.5474 C.3          1    LIG   0.0000
  27 N27          0.2018     7.8868     1.6602 N.pl3        1    LIG   0.0000
  28 C28          0.3341     9.0642     2.5307 C.3          1    LIG   0.0000
  29 N29          0.2073     7.9073     0.3484 N.pl3        1    LIG   0.0000
  30 C30          0.3399     9.0553    -0.4422 C.ar         1    LIG   0.0000
  31 C31         -0.7960     9.7563    -0.8339 C.ar         1    LIG   0.0000
  32 C32         -0.6550    10.8952    -1.6198 C.ar         1    LIG   0.0000
  33 C33          0.6119    11.3224    -2.0057 C.ar         1    LIG   0.0000
  34 C34          1.7424    10.6155    -1.6092 C.ar         1    LIG   0.0000
  35 C35          1.6102     9.4749    -0.8236 C.ar         1    LIG   0.0000
  36 C36          0.0620     6.6402    -0.1238 C.2          1    LIG   0.0000
  37 O37          0.0247     6.2925    -1.2941 O.2          1    LIG   0.0000
  38 H            7.2261    -3.8469     0.9975 H            1    LIG   0.0000
  39 H           -3.4525     3.6707     0.9967 H            1    LIG   0.0000
  40 H           -2.8546     4.9507     1.8158 H            1    LIG   0.0000
  41 H           -2.8530     4.9533     0.1828 H            1    LIG   0.0000
  42 H           -1.8096     1.6668     0.9986 H            1    LIG   0.0000
  43 H            2.8533     1.4714     0.1835 H            1    LIG   0.0000
  44 H            2.8533     1.4714     1.8165 H            1    LIG   0.0000
  45 H            3.1840    -3.1451     1.0038 H            1    LIG   0.0000
  46 H            2.7314    -5.6271     1.0054 H            1    LIG   0.0000
  47 H            3.2194    -8.1317     0.9942 H            1    LIG   0.0000
  48 H            6.8280    -6.2704     1.0042 H            1    LIG   0.0000
  49 H            2.8336     2.9702     0.9991 H            1    LIG   0.0000
  50 H            2.5348     4.3532     0.1837 H            1    LIG   0.0000
  51 H            2.5352     4.3519     1.8167 H            1    LIG   0.0000
  52 H           -0.1145     5.1617     3.5840 H            1    LIG   0.0000
  53 H            0.8502     6.4093     4.0075 H            1    LIG   0.0000
  54 H           -0.7721     6.5959     4.0051 H            1    LIG   0.0000
  55 H            0.2989     8.7766     3.4879 H            1    LIG   0.0000
  56 H            1.2080     9.5156     2.3503 H            1    LIG   0.0000
  57 H           -0.4145     9.7010     2.3462 H            1    LIG   0.0000
  58 H           -1.7040     9.4448    -0.5535 H            1    LIG   0.0000
  59 H           -1.4644    11.4071    -1.9076 H            1    LIG   0.0000
  60 H            0.7101    12.1417    -2.5707 H            1    LIG   0.0000
  61 H            2.6504    10.9272    -1.8889 H            1    LIG   0.0000
  62 H            2.4193     8.9623    -0.5362 H            1    LIG   0.0000
@<TRIPOS>BOND
   1        1        2 1
   2        2        3 2
   3        3        4 1
   4        4        5 1
   5        5        6 2
   6        5        7 1
   7        7        8 1
   8        8        9 1
   9        9       10 2
  10        9       11 1
  11       11       12 1
  12       12       13 2
  13       13       14 1
  14       14       15 1
  15       15       16 2
  16       16       17 1
  17       17       18 1
  18       18       14 2
  19       13       19 1
  20       19       20 1
  21       20       11 2
  22        4       21 2
  23       21       22 1
  24       21       23 1
  25       23        2 1
  26       23       24 1
  27       24       25 2
  28       25       26 1
  29       25       27 1
  30       27       28 1
  31       27       29 1
  32       29       30 1
  33       30       31 ar
  34       31       32 ar
  35       32       33 ar
  36       33       34 ar
  37       34       35 ar
  38       35       30 ar
  39       29       36 1
  40       36       24 1
  41       36       37 2
  42       19       38 1
  43        1       39 1
  44        1       40 1
  45        1       41 1
  46        3       42 1
  47        7       43 1
  48        7       44 1
  49       12       45 1
  50       15       46 1
  51       16       47 1
  52       18       48 1
  53       22       49 1
  54       22       50 1
  55       22       51 1
  56       26       52 1
  57       26       53 1
  58       26       54 1
  59       28       55 1
  60       28       56 1
  61       28       57 1
  62       31       58 1
  63       32       59 1
  64       33       60 1
  65       34       61 1
  66       35       62 1

@<TRIPOS>MOLECULE

  62   66
SMALL
USER_CHARGES
@<TRIPOS>ATOM
   1 C1          -0.0548     5.9407     1.0015 C.3          1    LIG   0.0000
   2 C2          -0.1861     4.4263     1.0012 C.2          1    LIG   0.0000
   3 C3           0.8521     3.5453     1.0010 C.2          1    LIG   0.0000
   4 C4           0.2748     2.2561     1.0000 C.2          1    LIG   0.0000
   5 C5           1.0000     1.0000     1.0000 C.2          1    LIG   0.0000
   6 O6           0.4000    -0.0392     1.0000 O.2          1    LIG   0.0000
   7 C7           2.5200     1.0000     1.0000 C.3          1    LIG   0.0000
   8 O8           2.9933    -0.3388     1.0000 O.3          1    LIG   0.0000
   9 C9           4.2961    -0.4764     1.0000 C.2          1    LIG   0.0000
  10 O10          5.0019     0.4941     1.0000 O.2          1    LIG   0.0000
  11 C11          4.8853    -1.8016     1.0000 C.2          1    LIG   0.0000
  12 C12          6.2658    -2.0920     0.9982 C.2          1    LIG   0.0000
  13 C13          6.3494    -3.4495     0.9997 C.2          1    LIG   0.0000
  14 C14          7.5711    -4.2296     0.9988 C.2          1    LIG   0.0000
  15 C15          8.8894    -3.7253     0.9982 C.2          1    LIG   0.0000
  16 C16          9.7013    -4.8165     1.0034 C.2          1    LIG   0.0000
  17 O17          8.9421    -5.8869     1.0046 O.2          1    LIG   0.0000
  18 C18          7.6634    -5.5895     0.9992 C.2          1    LIG   0.0000
  19 N19          5.0819    -3.9404     1.0010 N.pl3        1    LIG   0.0000
  20 N20          4.2291    -2.9365     1.0000 N.2          1    LIG   0.0000
  21 C21         -1.0774     2.4030     1.0000 C.2          1    LIG   0.0000
  22 C22         -2.0978     1.2773     1.0002 C.3          1    LIG   0.0000
  23 N23         -1.3581     3.7325     0.9991 N.pl3        1    LIG   0.0000
  24 C24         -2.6400     4.2956     0.9958 C.2          1    LIG   0.0000
  25 C25         -3.3867     4.6226     2.0837 C.2          1    LIG   0.0000
  26 C26         -2.9789     4.4387     3.5372 C.3          1    LIG   0.0000
  27 N27         -4.5631     5.1467     1.6419 N.pl3        1    LIG   0.0000
  28 C28         -5.6505     5.6272     2.5069 C.3          1    LIG   0.0000
  29 N29         -4.5753     5.1557     0.3300 N.pl3        1    LIG   0.0000
  30 C30         -5.6276     5.6245    -0.4660 C.ar         1    LIG   0.0000
  31 C31         -6.6349     4.7499    -0.8604 C.ar         1    LIG   0.0000
  32 C32         -7.6759     5.2240    -1.6516 C.ar         1    LIG   0.0000
  33 C33         -7.7024     6.5600    -2.0402 C.ar         1    LIG   0.0000
  34 C34         -6.6910     7.4276    -1.6410 C.ar         1    LIG   0.0000
  35 C35         -5.6458     6.9614    -0.8500 C.ar         1    LIG   0.0000
  36 C36         -3.4079     4.6366    -0.1362 C.2          1    LIG   0.0000
  37 O37         -3.0823     4.4947    -1.3049 O.2          1    LIG   0.0000
  38 H            4.8358    -4.9097     1.0025 H            1    LIG   0.0000
  39 H            0.9133     6.1913     1.0033 H            1    LIG   0.0000
  40 H           -0.4941     6.3135     0.1842 H            1    LIG   0.0000
  41 H           -0.4971     6.3135     1.8172 H            1    LIG   0.0000
  42 H            1.8273     3.7665     1.0014 H            1    LIG   0.0000
  43 H            2.8533     1.4714     0.1835 H            1    LIG   0.0000
  44 H            2.8533     1.4714     1.8165 H            1    LIG   0.0000
  45 H            7.0225    -1.4384     0.9962 H            1    LIG   0.0000
  46 H            9.1685    -2.7650     0.9946 H            1    LIG   0.0000
  47 H           10.7012    -4.8051     1.0058 H            1    LIG   0.0000
  48 H            6.9019    -6.2375     0.9958 H            1    LIG   0.0000
  49 H           -1.6231     0.3972     1.0009 H            1    LIG   0.0000
  50 H           -2.6713     1.3474     1.8163 H            1    LIG   0.0000
  51 H           -2.6705     1.3464     0.1833 H            1    LIG   0.0000
  52 H           -2.0660     4.0325     3.5785 H            1    LIG   0.0000
  53 H           -2.9693     5.3274     3.9957 H            1    LIG   0.0000
  54 H           -3.6331     3.8354     3.9933 H            1    LIG   0.0000
  55 H           -5.3908     5.5093     3.4653 H            1    LIG   0.0000
  56 H           -5.8188     6.5958     2.3238 H            1    LIG   0.0000
  57 H           -6.4815     5.1034     2.3198 H            1    LIG   0.0000
  58 H           -6.6108     3.7909    -0.5780 H            1    LIG   0.0000
  59 H           -8.4055     4.6046    -1.9415 H            1    LIG   0.0000
  60 H           -8.4522     6.8980    -2.6090 H            1    LIG   0.0000
  61 H           -6.7153     8.3868    -1.9226 H            1    LIG   0.0000
  62 H           -4.9157     7.5805    -0.5607 H            1    LIG   0.0000
@<TRIPOS>BOND
   1        1        2 1
   2        2        3 2
   3        3        4 1
   4        4        5 1
   5        5        6 2
   6        5        7 1
   7        7        8 1
   8        8        9 1
   9        9       10 2
  10        9       11 1
  11       11       12 1
  12       12       13 2
  13       13       14 1
  14       14       15 1
  15       15       16 2
  16       16       17 1
  17       17       18 1
  18       18       14 2
  19       13       19 1
  20       19       20 1
  21       20       11 2
  22        4       21 2
  23       21       22 1
  24       21       23 1
  25       23        2 1
  26       23       24 1
  27       24       25 2
  28       25       26 1
  29       25       27 1
  30       27       28 1
  31       27       29 1
  32       29       30 1
  33       30       31 ar
  34       31       32 ar
  35       32       33 ar
  36       33       34 ar
  37       34       35 ar
  38       35       30 ar
  39       29       36 1
  40       36       24 1
  41       36       37 2
  42       19       38 1
  43        1       39 1
  44        1       40 1
  45        1       41 1
  46        3       42 1
  47        7       43 1
  48        7       44 1
  49       12       45 1
  50       15       46 1
  51       16       47 1
  52       18       48 1
  53       22       49 1
  54       22       50 1
  55       22       51 1
  56       26       52 1
  57       26       53 1
  58       26       54 1
  59       28       55 1
  60       28       56 1
  61       28       57 1
  62       31       58 1
  63       32       59 1
  64       33       60 1
  65       34       61 1
  66       35       62 1

@<TRIPOS>MOLECULE

  62   66
SMALL
USER_CHARGES
@<TRIPOS>ATOM
   1 C1          -0.0548     5.9407     1.0015 C.3          1    LIG   0.0000
   2 C2          -0.1861     4.4263     1.0012 C.2          1    LIG   0.0000
   3 C3           0.8521     3.5453     1.0010 C.2          1    LIG   0.0000
   4 C4           0.2748     2.2561     1.0000 C.2          1    LIG   0.0000
   5 C5           1.0000     1.0000     1.0000 C.2          1    LIG   0.0000
   6 O6           0.4000    -0.0392     1.0000 O.2          1    LIG   0.0000
   7 C7           2.5200     1.0000     1.0000 C.3          1    LIG   0.0000
   8 O8           2.9933    -0.3388     1.0000 O.3          1    LIG   0.0000
   9 C9           4.2961    -0.4764     1.0000 C.2          1    LIG   0.0000
  10 O10          5.0019     0.4941     1.0000 O.2          1    LIG   0.0000
  11 C11          4.8853    -1.8016     1.0000 C.2          1    LIG   0.0000
  12 C12          6.2658    -2.0920     0.9982 C.2          1    LIG   0.0000
  13 C13          6.3494    -3.4495     0.9997 C.2          1    LIG   0.0000
  14 C14          7.5711    -4.2296     0.9988 C.2          1    LIG   0.0000
  15 C15          8.8894    -3.7253     0.9982 C.2          1    LIG   0.0000
  16 C16          9.7013    -4.8165     1.0034 C.2          1    LIG   0.0000
  17 O17          8.9421    -5.8869     1.0046 O.2          1    LIG   0.0000
  18 C18          7.6634    -5.5895     0.9992 C.2          1    LIG   0.0000
  19 N19          5.0819    -3.9404     1.0010 N.pl3        1    LIG   0.0000
  20 N20          4.2291    -2.9365     1.0000 N.2          1    LIG   0.0000
  21 C21         -1.0774     2.4030     1.0000 C.2          1    LIG   0.0000
  22 C22         -2.0978     1.2773     1.0002 C.3          1    LIG   0.0000
  23 N23         -1.3581     3.7325     0.9991 N.pl3        1    LIG   0.0000
  24 C24         -2.6400     4.2956     0.9958 C.2          1    LIG   0.0000
  25 C25         -3.3813     4.6222    -0.0960 C.2          1    LIG   0.0000
  26 C26         -2.9638     4.4435    -1.5474 C.3          1    LIG   0.0000
  27 N27         -4.5650     5.1347     0.3398 N.pl3        1    LIG   0.0000
  28 C28         -5.6508     5.6088    -0.5307 C.3          1    LIG   0.0000
  29 N29         -4.5856     5.1401     1.6516 N.pl3        1    LIG   0.0000
  30 C30         -5.6461     5.5994     2.4422 C.ar         1    LIG   0.0000
  31 C31         -5.6852     6.9335     2.8339 C.ar         1    LIG   0.0000
  32 C32         -6.7420     7.3809     3.6198 C.ar         1    LIG   0.0000
  33 C33         -7.7454     6.4973     4.0057 C.ar         1    LIG   0.0000
  34 C34         -7.6984     5.1648     3.6092 C.ar         1    LIG   0.0000
  35 C35         -6.6445     4.7090     2.8236 C.ar         1    LIG   0.0000
  36 C36         -3.4155     4.6325     2.1238 C.2          1    LIG   0.0000
  37 O37         -3.0958     4.4909     3.2941 O.2          1    LIG   0.0000
  38 H            4.8358    -4.9097     1.0025 H            1    LIG   0.0000
  39 H            0.9133     6.1913     1.0033 H            1    LIG   0.0000
  40 H           -0.4941     6.3135     0.1842 H            1    LIG   0.0000
  41 H           -0.4971     6.3135     1.8172 H            1    LIG   0.0000
  42 H            1.8273     3.7665     1.0014 H            1    LIG   0.0000
  43 H            2.8533     1.4714     0.1835 H            1    LIG   0.0000
  44 H            2.8533     1.4714     1.8165 H            1    LIG   0.0000
  45 H            7.0225    -1.4384     0.9962 H            1    LIG   0.0000
  46 H            9.1685    -2.7650     0.9946 H            1    LIG   0.0000
  47 H           10.7012    -4.8051     1.0058 H            1    LIG   0.0000
  48 H            6.9019    -6.2375     0.9958 H            1    LIG   0.0000
  49 H           -1.6231     0.3972     1.0009 H            1    LIG   0.0000
  50 H           -2.6713     1.3474     1.8163 H            1    LIG   0.0000
  51 H           -2.6705     1.3464     0.1833 H            1    LIG   0.0000
  52 H           -2.0469     4.0460    -1.5840 H            1    LIG   0.0000
  53 H           -3.6097     3.8344    -2.0075 H            1    LIG   0.0000
  54 H           -2.9602     5.3326    -2.0051 H            1    LIG   0.0000
  55 H           -5.3842     5.4955    -1.4879 H            1    LIG   0.0000
  56 H           -6.4787     5.0777    -0.3503 H            1    LIG   0.0000
  57 H           -5.8280     6.5755    -0.3462 H            1    LIG   0.0000
  58 H           -4.9615     7.5641     2.5535 H            1    LIG   0.0000
  59 H           -6.7807     8.3378     3.9076 H            1    LIG   0.0000
  60 H           -8.5040     6.8219     4.5707 H            1    LIG   0.0000
  61 H           -8.4224     4.5343     3.8889 H            1    LIG   0.0000
  62 H           -6.6052     3.7520     2.5362 H            1    LIG   0.0000
@<TRIPOS>BOND
   1        1        2 1
   2        2        3 2
   3        3        4 1
   4        4        5 1
   5        5        6 2
   6        5        7 1
   7        7        8 1
   8        8        9 1
   9        9       10 2
  10        9       11 1
  11       11       12 1
  12       12       13 2
  13       13       14 1
  14       14       15 1
  15       15       16 2
  16       16       17 1
  17       17       18 1
  18       18       14 2
  19       13       19 1
  20       19       20 1
  21       20       11 2
  22        4       21 2
  23       21       22 1
  24       21       23 1
  25       23        2 1
  26       23       24 1
  27       24       25 2
  28       25       26 1
  29       25       27 1
  30       27       28 1
  31       27       29 1
  32       29       30 1
  33       30       31 ar
  34       31       32 ar
  35       32       33 ar
  36       33       34 ar
  37       34       35 ar
  38       35       30 ar
  39       29       36 1
  40       36       24 1
  41       36       37 2
  42       19       38 1
  43        1       39 1
  44        1       40 1
  45        1       41 1
  46        3       42 1
  47        7       43 1
  48        7       44 1
  49       12       45 1
  50       15       46 1
  51       16       47 1
  52       18       48 1
  53       22       49 1
  54       22       50 1
  55       22       51 1
  56       26       52 1
  57       26       53 1
  58       26       54 1
  59       28       55 1
  60       28       56 1
  61       28       57 1
  62       31       58 1
  63       32       59 1
  64       33       60 1
  65       34       61 1
  66       35       62 1

@<TRIPOS>MOLECULE

  62   66
SMALL
USER_CHARGES
@<TRIPOS>ATOM
   1 C1          -2.7514     4.3838     0.9985 C.3          1    LIG   0.0000
   2 C2          -1.3742     3.7404     0.9988 C.2          1    LIG   0.0000
   3 C3          -1.1304     2.4007     0.9990 C.2          1    LIG   0.0000
   4 C4           0.2748     2.2561     1.0000 C.2          1    LIG   0.0000
   5 C5           1.0000     1.0000     1.0000 C.2          1    LIG   0.0000
   6 O6           0.4000    -0.0392     1.0000 O.2          1    LIG   0.0000
   7 C7           2.5200     1.0000     1.0000 C.3          1    LIG   0.0000
   8 O8           2.9933    -0.3388     1.0000 O.3          1    LIG   0.0000
   9 C9           4.2961    -0.4764     1.0000 C.2          1    LIG   0.0000
  10 O10          5.0019     0.4941     1.0000 O.2          1    LIG   0.0000
  11 C11          4.8853    -1.8016     1.0000 C.2          1    LIG   0.0000
  12 C12          6.2658    -2.0920     0.9982 C.2          1    LIG   0.0000
  13 C13          6.3494    -3.4495     0.9997 C.2          1    LIG   0.0000
  14 C14          7.5711    -4.2296     0.9988 C.2          1    LIG   0.0000
  15 C15          8.8894    -3.7253     0.9982 C.2          1    LIG   0.0000
  16 C16          9.7013    -4.8165     1.0034 C.2          1    LIG   0.0000
  17 O17          8.9421    -5.8869     1.0046 O.2          1    LIG   0.0000
  18 C18          7.6634    -5.5895     0.9992 C.2          1    LIG   0.0000
  19 N19          5.0819    -3.9404     1.0010 N.pl3        1    LIG   0.0000
  20 N20          4.2291    -2.9365     1.0000 N.2          1    LIG   0.0000
  21 C21          0.8236     3.5006     1.0000 C.2          1    LIG   0.0000
  22 C22          2.3087     3.8214     0.9998 C.3          1    LIG   0.0000
  23 N23         -0.1874     4.4084     1.0009 N.pl3        1    LIG   0.0000
  24 C24         -0.0341     5.8001     1.0042 C.2          1    LIG   0.0000
  25 C25          0.0561     6.6103    -0.0837 C.2          1    LIG   0.0000
  26 C26          0.0114     6.1652    -1.5372 C.3          1    LIG   0.0000
  27 N27          0.1904     7.8911     0.3581 N.pl3        1    LIG   0.0000
  28 C28          0.3179     9.0731    -0.5069 C.3          1    LIG   0.0000
  29 N29          0.1887     7.9062     1.6700 N.pl3        1    LIG   0.0000
  30 C30          0.3089     9.0519     2.4660 C.ar         1    LIG   0.0000
  31 C31          1.5699     9.4869     2.8604 C.ar         1    LIG   0.0000
  32 C32          1.6798    10.6255     3.6516 C.ar         1    LIG   0.0000
  33 C33          0.5361    11.3165     4.0402 C.ar         1    LIG   0.0000
  34 C34         -0.7210    10.8745     3.6410 C.ar         1    LIG   0.0000
  35 C35         -0.8398     9.7361     2.8500 C.ar         1    LIG   0.0000
  36 C36          0.0545     6.6357     2.1362 C.2          1    LIG   0.0000
  37 O37          0.0146     6.2828     3.3049 O.2          1    LIG   0.0000
  38 H            4.8358    -4.9097     1.0025 H            1    LIG   0.0000
  39 H           -3.4525     3.6707     0.9967 H            1    LIG   0.0000
  40 H           -2.8546     4.9507     1.8158 H            1    LIG   0.0000
  41 H           -2.8530     4.9533     0.1828 H            1    LIG   0.0000
  42 H           -1.8096     1.6668     0.9986 H            1    LIG   0.0000
  43 H            2.8533     1.4714     0.1835 H            1    LIG   0.0000
  44 H            2.8533     1.4714     1.8165 H            1    LIG   0.0000
  45 H            7.0225    -1.4384     0.9962 H            1    LIG   0.0000
  46 H            9.1685    -2.7650     0.9946 H            1    LIG   0.0000
  47 H           10.7012    -4.8051     1.0058 H            1    LIG   0.0000
  48 H            6.9019    -6.2375     0.9958 H            1    LIG   0.0000
  49 H            2.8336     2.9702     0.9991 H            1    LIG   0.0000
  50 H            2.5348     4.3532     0.1837 H            1    LIG   0.0000
  51 H            2.5352     4.3519     1.8167 H            1    LIG   0.0000
  52 H           -0.0932     5.1715    -1.5785 H            1    LIG   0.0000
  53 H           -0.7630     6.6012    -1.9957 H            1    LIG   0.0000
  54 H            0.8610     6.4301    -1.9933 H            1    LIG   0.0000
  55 H            0.2902     8.7893    -1.4653 H            1    LIG   0.0000
  56 H           -0.4368     9.7031    -0.3238 H            1    LIG   0.0000
  57 H            1.1871     9.5308    -0.3198 H            1    LIG   0.0000
  58 H            2.3884     8.9866     2.5780 H            1    LIG   0.0000
  59 H            2.5810    10.9477     3.9415 H            1    LIG   0.0000
  60 H            0.6183    12.1348     4.6090 H            1    LIG   0.0000
  61 H           -1.5395    11.3751     3.9226 H            1    LIG   0.0000
  62 H           -1.7410     9.4133     2.5607 H            1    LIG   0.0000
@<TRIPOS>BOND
   1        1        2 1
   2        2        3 2
   3        3        4 1
   4        4        5 1
   5        5        6 2
   6        5        7 1
   7        7        8 1
   8        8        9 1
   9        9       10 2
  10        9       11 1
  11       11       12 1
  12       12       13 2
  13       13       14 1
  14       14       15 1
  15       15       16 2
  16       16       17 1
  17       17       18 1
  18       18       14 2
  19       13       19 1
  20       19       20 1
  21       20       11 2
  22        4       21 2
  23       21       22 1
  24       21       23 1
  25       23        2 1
  26       23       24 1
  27       24       25 2
  28       25       26 1
  29       25       27 1
  30       27       28 1
  31       27       29 1
  32       29       30 1
  33       30       31 ar
  34       31       32 ar
  35       32       33 ar
  36       33       34 ar
  37       34       35 ar
  38       35       30 ar
  39       29       36 1
  40       36       24 1
  41       36       37 2
  42       19       38 1
  43        1       39 1
  44        1       40 1
  45        1       41 1
  46        3       42 1
  47        7       43 1
  48        7       44 1
  49       12       45 1
  50       15       46 1
  51       16       47 1
  52       18       48 1
  53       22       49 1
  54       22       50 1
  55       22       51 1
  56       26       52 1
  57       26       53 1
  58       26       54 1
  59       28       55 1
  60       28       56 1
  61       28       57 1
  62       31       58 1
  63       32       59 1
  64       33       60 1
  65       34       61 1
  66       35       62 1

@<TRIPOS>MOLECULE

  62   66
SMALL
USER_CHARGES
@<TRIPOS>ATOM
   1 C1          -2.7514     4.3838     0.9985 C.3          1    LIG   0.0000
   2 C2          -1.3742     3.7404     0.9988 C.2          1    LIG   0.0000
   3 C3          -1.1304     2.4007     0.9990 C.2          1    LIG   0.0000
   4 C4           0.2748     2.2561     1.0000 C.2          1    LIG   0.0000
   5 C5           1.0000     1.0000     1.0000 C.2          1    LIG   0.0000
   6 O6           0.4000    -0.0392     1.0000 O.2          1    LIG   0.0000
   7 C7           2.5200     1.0000     1.0000 C.3          1    LIG   0.0000
   8 O8           2.9933    -0.3388     1.0000 O.3          1    LIG   0.0000
   9 C9           4.2961    -0.4764     1.0000 C.2          1    LIG   0.0000
  10 O10          5.0019     0.4941     1.0000 O.2          1    LIG   0.0000
  11 C11          4.8853    -1.8016     1.0000 C.2          1    LIG   0.0000
  12 C12          6.2658    -2.0920     0.9982 C.2          1    LIG   0.0000
  13 C13          6.3494    -3.4495     0.9997 C.2          1    LIG   0.0000
  14 C14          7.5711    -4.2296     0.9988 C.2          1    LIG   0.0000
  15 C15          8.8894    -3.7253     0.9982 C.2          1    LIG   0.0000
  16 C16          9.7013    -4.8165     1.0034 C.2          1    LIG   0.0000
  17 O17          8.9421    -5.8869     1.0046 O.2          1    LIG   0.0000
  18 C18          7.6634    -5.5895     0.9992 C.2          1    LIG   0.0000
  19 N19          5.0819    -3.9404     1.0010 N.pl3        1    LIG   0.0000
  20 N20          4.2291    -2.9365     1.0000 N.2          1    LIG   0.0000
  21 C21          0.8236     3.5006     1.0000 C.2          1    LIG   0.0000
  22 C22          2.3087     3.8214     0.9998 C.3          1    LIG   0.0000
  23 N23         -0.1874     4.4084     1.0009 N.pl3        1    LIG   0.0000
  24 C24         -0.0341     5.8001     1.0042 C.2          1    LIG   0.0000
  25 C25          0.0538     6.6054     2.0960 C.2          1    LIG   0.0000
  26 C26         -0.0003     6.1545     3.5474 C.3          1    LIG   0.0000
  27 N27          0.2018     7.8868     1.6602 N.pl3        1    LIG   0.0000
  28 C28          0.3341     9.0642     2.5307 C.3          1    LIG   0.0000
  29 N29          0.2073     7.9073     0.3484 N.pl3        1    LIG   0.0000
  30 C30          0.3399     9.0553    -0.4422 C.ar         1    LIG   0.0000
  31 C31         -0.7960     9.7563    -0.8339 C.ar         1    LIG   0.0000
  32 C32         -0.6550    10.8952    -1.6198 C.ar         1    LIG   0.0000
  33 C33          0.6119    11.3224    -2.0057 C.ar         1    LIG   0.0000
  34 C34          1.7424    10.6155    -1.6092 C.ar         1    LIG   0.0000
  35 C35          1.6102     9.4749    -0.8236 C.ar         1    LIG   0.0000
  36 C36          0.0620     6.6402    -0.1238 C.2          1    LIG   0.0000
  37 O37          0.0247     6.2925    -1.2941 O.2          1    LIG   0.0000
  38 H            4.8358    -4.9097     1.0025 H            1    LIG   0.0000
  39 H           -3.4525     3.6707     0.9967 H            1    LIG   0.0000
  40 H           -2.8546     4.9507     1.8158 H            1    LIG   0.0000
  41 H           -2.8530     4.9533     0.1828 H            1    LIG   0.0000
  42 H           -1.8096     1.6668     0.9986 H            1    LIG   0.0000
  43 H            2.8533     1.4714     0.1835 H            1    LIG   0.0000
  44 H            2.8533     1.4714     1.8165 H            1    LIG   0.0000
  45 H            7.0225    -1.4384     0.9962 H            1    LIG   0.0000
  46 H            9.1685    -2.7650     0.9946 H            1    LIG   0.0000
  47 H           10.7012    -4.8051     1.0058 H            1    LIG   0.0000
  48 H            6.9019    -6.2375     0.9958 H            1    LIG   0.0000
  49 H            2.8336     2.9702     0.9991 H            1    LIG   0.0000
  50 H            2.5348     4.3532     0.1837 H            1    LIG   0.0000
  51 H            2.5352     4.3519     1.8167 H            1    LIG   0.0000
  52 H           -0.1145     5.1617     3.5840 H            1    LIG   0.0000
  53 H            0.8502     6.4093     4.0075 H            1    LIG   0.0000
  54 H           -0.7721     6.5959     4.0051 H            1    LIG   0.0000
  55 H            0.2989     8.7766     3.4879 H            1    LIG   0.0000
  56 H            1.2080     9.5156     2.3503 H            1    LIG   0.0000
  57 H           -0.4145     9.7010     2.3462 H            1    LIG   0.0000
  58 H           -1.7040     9.4448    -0.5535 H            1    LIG   0.0000
  59 H           -1.4644    11.4071    -1.9076 H            1    LIG   0.0000
  60 H            0.7101    12.1417    -2.5707 H            1    LIG   0.0000
  61 H            2.6504    10.9272    -1.8889 H            1    LIG   0.0000
  62 H            2.4193     8.9623    -0.5362 H            1    LIG   0.0000
@<TRIPOS>BOND
   1        1        2 1
   2        2        3 2
   3        3        4 1
   4        4        5 1
   5        5        6 2
   6        5        7 1
   7        7        8 1
   8        8        9 1
   9        9       10 2
  10        9       11 1
  11       11       12 1
  12       12       13 2
  13       13       14 1
  14       14       15 1
  15       15       16 2
  16       16       17 1
  17       17       18 1
  18       18       14 2
  19       13       19 1
  20       19       20 1
  21       20       11 2
  22        4       21 2
  23       21       22 1
  24       21       23 1
  25       23        2 1
  26       23       24 1
  27       24       25 2
  28       25       26 1
  29       25       27 1
  30       27       28 1
  31       27       29 1
  32       29       30 1
  33       30       31 ar
  34       31       32 ar
  35       32       33 ar
  36       33       34 ar
  37       34       35 ar
  38       35       30 ar
  39       29       36 1
  40       36       24 1
  41       36       37 2
  42       19       38 1
  43        1       39 1
  44        1       40 1
  45        1       41 1
  46        3       42 1
  47        7       43 1
  48        7       44 1
  49       12       45 1
  50       15       46 1
  51       16       47 1
  52       18       48 1
  53       22       49 1
  54       22       50 1
  55       22       51 1
  56       26       52 1
  57       26       53 1
  58       26       54 1
  59       28       55 1
  60       28       56 1
  61       28       57 1
  62       31       58 1
  63       32       59 1
  64       33       60 1
  65       34       61 1
  66       35       62 1

@<TRIPOS>MOLECULE

  62   66
SMALL
USER_CHARGES
@<TRIPOS>ATOM
   1 C1          -0.0548     5.9407     1.0015 C.3          1    LIG   0.0000
   2 C2          -0.1861     4.4263     1.0012 C.2          1    LIG   0.0000
   3 C3           0.8521     3.5453     1.0010 C.2          1    LIG   0.0000
   4 C4           0.2748     2.2561     1.0000 C.2          1    LIG   0.0000
   5 C5           1.0000     1.0000     1.0000 C.2          1    LIG   0.0000
   6 O6           0.4000    -0.0392     1.0000 O.2          1    LIG   0.0000
   7 C7           2.5200     1.0000     1.0000 C.3          1    LIG   0.0000
   8 O8           2.9933    -0.3388     1.0000 O.3          1    LIG   0.0000
   9 C9           3.1813    -0.8705    -0.1824 C.2          1    LIG   0.0000
  10 O10          2.9548    -0.2297    -1.1713 O.2          1    LIG   0.0000
  11 C11          3.6633    -2.2336    -0.2962 C.2          1    LIG   0.0000
  12 C12          3.9062    -2.9263    -1.5009 C.2          1    LIG   0.0000
  13 C13          4.3436    -4.1586    -1.1272 C.2          1    LIG   0.0000
  14 C14          4.7236    -5.2363    -2.0190 C.2          1    LIG   0.0000
  15 C15          4.7110    -5.2026    -3.4300 C.2          1    LIG   0.0000
  16 C16          5.1490    -6.4260    -3.8317 C.2          1    LIG   0.0000
  17 O17          5.4023    -7.1384    -2.7592 O.2          1    LIG   0.0000
  18 C18          5.1616    -6.4740    -1.6528 C.2          1    LIG   0.0000
  19 N19          4.3583    -4.1963     0.2315 N.pl3        1    LIG   0.0000
  20 N20          3.9470    -3.0362     0.7008 N.2          1    LIG   0.0000
  21 C21         -1.0774     2.4030     1.0000 C.2          1    LIG   0.0000
  22 C22         -2.0978     1.2773     1.0002 C.3          1    LIG   0.0000
  23 N23         -1.3581     3.7325     0.9991 N.pl3        1    LIG   0.0000
  24 C24         -2.6400     4.2956     0.9958 C.2          1    LIG   0.0000
  25 C25         -3.3867     4.6226     2.0837 C.2          1    LIG   0.0000
  26 C26         -2.9789     4.4387     3.5372 C.3          1    LIG   0.0000
  27 N27         -4.5631     5.1467     1.6419 N.pl3        1    LIG   0.0000
  28 C28         -5.6505     5.6272     2.5069 C.3          1    LIG   0.0000
  29 N29         -4.5753     5.1557     0.3300 N.pl3        1    LIG   0.0000
  30 C30         -5.6276     5.6245    -0.4660 C.ar         1    LIG   0.0000
  31 C31         -6.6349     4.7499    -0.8604 C.ar         1    LIG   0.0000
  32 C32         -7.6759     5.2240    -1.6516 C.ar         1    LIG   0.0000
  33 C33         -7.7024     6.5600    -2.0402 C.ar         1    LIG   0.0000
  34 C34         -6.6910     7.4276    -1.6410 C.ar         1    LIG   0.0000
  35 C35         -5.6458     6.9614    -0.8500 C.ar         1    LIG   0.0000
  36 C36         -3.4079     4.6366    -0.1362 C.2          1    LIG   0.0000
  37 O37         -3.0823     4.4947    -1.3049 O.2          1    LIG   0.0000
  38 H            4.6370    -4.9800     0.7865 H            1    LIG   0.0000
  39 H            0.9133     6.1913     1.0033 H            1    LIG   0.0000
  40 H           -0.4941     6.3135     0.1842 H            1    LIG   0.0000
  41 H           -0.4971     6.3135     1.8172 H            1    LIG   0.0000
  42 H            1.8273     3.7665     1.0014 H            1    LIG   0.0000
  43 H            2.8533     1.4714     0.1835 H            1    LIG   0.0000
  44 H            2.8533     1.4714     1.8165 H            1    LIG   0.0000
  45 H            3.7830    -2.5837    -2.4322 H            1    LIG   0.0000
  46 H            4.4369    -4.4379    -4.0132 H            1    LIG   0.0000
  47 H            5.2588    -6.7293    -4.7783 H            1    LIG   0.0000
  48 H            5.2775    -6.8118    -0.7188 H            1    LIG   0.0000
  49 H           -1.6231     0.3972     1.0009 H            1    LIG   0.0000
  50 H           -2.6713     1.3474     1.8163 H            1    LIG   0.0000
  51 H           -2.6705     1.3464     0.1833 H            1    LIG   0.0000
  52 H           -2.0660     4.0325     3.5785 H            1    LIG   0.0000
  53 H           -2.9693     5.3274     3.9957 H            1    LIG   0.0000
  54 H           -3.6331     3.8354     3.9933 H            1    LIG   0.0000
  55 H           -5.3908     5.5093     3.4653 H            1    LIG   0.0000
  56 H           -5.8188     6.5958     2.3238 H            1    LIG   0.0000
  57 H           -6.4815     5.1034     2.3198 H            1    LIG   0.0000
  58 H           -6.6108     3.7909    -0.5780 H            1    LIG   0.0000
  59 H           -8.4055     4.6046    -1.9415 H            1    LIG   0.0000
  60 H           -8.4522     6.8980    -2.6090 H            1    LIG   0.0000
  61 H           -6.7153     8.3868    -1.9226 H            1    LIG   0.0000
  62 H           -4.9157     7.5805    -0.5607 H            1    LIG   0.0000
@<TRIPOS>BOND
   1        1        2 1
   2        2        3 2
   3        3        4 1
   4        4        5 1
   5        5        6 2
   6        5        7 1
   7        7        8 1
   8        8        9 1
   9        9       10 2
  10        9       11 1
  11       11       12 1
  12       12       13 2
  13       13       14 1
  14       14       15 1
  15       15       16 2
  16       16       17 1
  17       17       18 1
  18       18       14 2
  19       13       19 1
  20       19       20 1
  21       20       11 2
  22        4       21 2
  23       21       22 1
  24       21       23 1
  25       23        2 1
  26       23       24 1
  27       24       25 2
  28       25       26 1
  29       25       27 1
  30       27       28 1
  31       27       29 1
  32       29       30 1
  33       30       31 ar
  34       31       32 ar
  35       32       33 ar
  36       33       34 ar
  37       34       35 ar
  38       35       30 ar
  39       29       36 1
  40       36       24 1
  41       36       37 2
  42       19       38 1
  43        1       39 1
  44        1       40 1
  45        1       41 1
  46        3       42 1
  47        7       43 1
  48        7       44 1
  49       12       45 1
  50       15       46 1
  51       16       47 1
  52       18       48 1
  53       22       49 1
  54       22       50 1
  55       22       51 1
  56       26       52 1
  57       26       53 1
  58       26       54 1
  59       28       55 1
  60       28       56 1
  61       28       57 1
  62       31       58 1
  63       32       59 1
  64       33       60 1
  65       34       61 1
  66       35       62 1

@<TRIPOS>MOLECULE

  62   66
SMALL
USER_CHARGES
@<TRIPOS>ATOM
   1 C1          -2.7514     4.3838     0.9985 C.3          1    LIG   0.0000
   2 C2          -1.3742     3.7404     0.9988 C.2          1    LIG   0.0000
   3 C3          -1.1304     2.4007     0.9990 C.2          1    LIG   0.0000
   4 C4           0.2748     2.2561     1.0000 C.2          1    LIG   0.0000
   5 C5           1.0000     1.0000     1.0000 C.2          1    LIG   0.0000
   6 O6           0.4000    -0.0392     1.0000 O.2          1    LIG   0.0000
   7 C7           2.5200     1.0000     1.0000 C.3          1    LIG   0.0000
   8 O8           2.9933    -0.3388     1.0000 O.3          1    LIG   0.0000
   9 C9           3.1813    -0.8705    -0.1824 C.2          1    LIG   0.0000
  10 O10          2.9548    -0.2297    -1.1713 O.2          1    LIG   0.0000
  11 C11          3.6633    -2.2336    -0.2962 C.2          1    LIG   0.0000
  12 C12          3.9062    -2.9263    -1.5009 C.2          1    LIG   0.0000
  13 C13          4.3436    -4.1586    -1.1272 C.2          1    LIG   0.0000
  14 C14          4.7236    -5.2363    -2.0190 C.2          1    LIG   0.0000
  15 C15          4.7110    -5.2026    -3.4300 C.2          1    LIG   0.0000
  16 C16          5.1490    -6.4260    -3.8317 C.2          1    LIG   0.0000
  17 O17          5.4023    -7.1384    -2.7592 O.2          1    LIG   0.0000
  18 C18          5.1616    -6.4740    -1.6528 C.2          1    LIG   0.0000
  19 N19          4.3583    -4.1963     0.2315 N.pl3        1    LIG   0.0000
  20 N20          3.9470    -3.0362     0.7008 N.2          1    LIG   0.0000
  21 C21          0.8236     3.5006     1.0000 C.2          1    LIG   0.0000
  22 C22          2.3087     3.8214     0.9998 C.3          1    LIG   0.0000
  23 N23         -0.1874     4.4084     1.0009 N.pl3        1    LIG   0.0000
  24 C24         -0.0341     5.8001     1.0042 C.2          1    LIG   0.0000
  25 C25          0.0561     6.6103    -0.0837 C.2          1    LIG   0.0000
  26 C26          0.0114     6.1652    -1.5372 C.3          1    LIG   0.0000
  27 N27          0.1904     7.8911     0.3581 N.pl3        1    LIG   0.0000
  28 C28          0.3179     9.0731    -0.5069 C.3          1    LIG   0.0000
  29 N29          0.1887     7.9062     1.6700 N.pl3        1    LIG   0.0000
  30 C30          0.3089     9.0519     2.4660 C.ar         1    LIG   0.0000
  31 C31          1.5699     9.4869     2.8604 C.ar         1    LIG   0.0000
  32 C32          1.6798    10.6255     3.6516 C.ar         1    LIG   0.0000
  33 C33          0.5361    11.3165     4.0402 C.ar         1    LIG   0.0000
  34 C34         -0.7210    10.8745     3.6410 C.ar         1    LIG   0.0000
  35 C35         -0.8398     9.7361     2.8500 C.ar         1    LIG   0.0000
  36 C36          0.0545     6.6357     2.1362 C.2          1    LIG   0.0000
  37 O37          0.0146     6.2828     3.3049 O.2          1    LIG   0.0000
  38 H            4.6370    -4.9800     0.7865 H            1    LIG   0.0000
  39 H           -3.4525     3.6707     0.9967 H            1    LIG   0.0000
  40 H           -2.8546     4.9507     1.8158 H            1    LIG   0.0000
  41 H           -2.8530     4.9533     0.1828 H            1    LIG   0.0000
  42 H           -1.8096     1.6668     0.9986 H            1    LIG   0.0000
  43 H            2.8533     1.4714     0.1835 H            1    LIG   0.0000
  44 H            2.8533     1.4714     1.8165 H            1    LIG   0.0000
  45 H            3.7830    -2.5837    -2.4322 H            1    LIG   0.0000
  46 H            4.4369    -4.4379    -4.0132 H            1    LIG   0.0000
  47 H            5.2588    -6.7293    -4.7783 H            1    LIG   0.0000
  48 H            5.2775    -6.8118    -0.7188 H            1    LIG   0.0000
  49 H            2.8336     2.9702     0.9991 H            1    LIG   0.0000
  50 H            2.5348     4.3532     0.1837 H            1    LIG   0.0000
  51 H            2.5352     4.3519     1.8167 H            1    LIG   0.0000
  52 H           -0.0932     5.1715    -1.5785 H            1    LIG   0.0000
  53 H           -0.7630     6.6012    -1.9957 H            1    LIG   0.0000
  54 H            0.8610     6.4301    -1.9933 H            1    LIG   0.0000
  55 H            0.2902     8.7893    -1.4653 H            1    LIG   0.0000
  56 H           -0.4368     9.7031    -0.3238 H            1    LIG   0.0000
  57 H            1.1871     9.5308    -0.3198 H            1    LIG   0.0000
  58 H            2.3884     8.9866     2.5780 H            1    LIG   0.0000
  59 H            2.5810    10.9477     3.9415 H            1    LIG   0.0000
  60 H            0.6183    12.1348     4.6090 H            1    LIG   0.0000
  61 H           -1.5395    11.3751     3.9226 H            1    LIG   0.0000
  62 H           -1.7410     9.4133     2.5607 H            1    LIG   0.0000
@<TRIPOS>BOND
   1        1        2 1
   2        2        3 2
   3        3        4 1
   4        4        5 1
   5        5        6 2
   6        5        7 1
   7        7        8 1
   8        8        9 1
   9        9       10 2
  10        9       11 1
  11       11       12 1
  12       12       13 2
  13       13       14 1
  14       14       15 1
  15       15       16 2
  16       16       17 1
  17       17       18 1
  18       18       14 2
  19       13       19 1
  20       19       20 1
  21       20       11 2
  22        4       21 2
  23       21       22 1
  24       21       23 1
  25       23        2 1
  26       23       24 1
  27       24       25 2
  28       25       26 1
  29       25       27 1
  30       27       28 1
  31       27       29 1
  32       29       30 1
  33       30       31 ar
  34       31       32 ar
  35       32       33 ar
  36       33       34 ar
  37       34       35 ar
  38       35       30 ar
  39       29       36 1
  40       36       24 1
  41       36       37 2
  42       19       38 1
  43        1       39 1
  44        1       40 1
  45        1       41 1
  46        3       42 1
  47        7       43 1
  48        7       44 1
  49       12       45 1
  50       15       46 1
  51       16       47 1
  52       18       48 1
  53       22       49 1
  54       22       50 1
  55       22       51 1
  56       26       52 1
  57       26       53 1
  58       26       54 1
  59       28       55 1
  60       28       56 1
  61       28       57 1
  62       31       58 1
  63       32       59 1
  64       33       60 1
  65       34       61 1
  66       35       62 1

@<TRIPOS>MOLECULE

  62   66
SMALL
USER_CHARGES
@<TRIPOS>ATOM
   1 C1          -2.7514     4.3838     0.9985 C.3          1    LIG   0.0000
   2 C2          -1.3742     3.7404     0.9988 C.2          1    LIG   0.0000
   3 C3          -1.1304     2.4007     0.9990 C.2          1    LIG   0.0000
   4 C4           0.2748     2.2561     1.0000 C.2          1    LIG   0.0000
   5 C5           1.0000     1.0000     1.0000 C.2          1    LIG   0.0000
   6 O6           0.4000    -0.0392     1.0000 O.2          1    LIG   0.0000
   7 C7           2.5200     1.0000     1.0000 C.3          1    LIG   0.0000
   8 O8           2.9933    -0.3388     1.0000 O.3          1    LIG   0.0000
   9 C9           3.1813    -0.8705    -0.1824 C.2          1    LIG   0.0000
  10 O10          2.9548    -0.2297    -1.1713 O.2          1    LIG   0.0000
  11 C11          3.6633    -2.2336    -0.2962 C.2          1    LIG   0.0000
  12 C12          3.9062    -2.9263    -1.5009 C.2          1    LIG   0.0000
  13 C13          4.3436    -4.1586    -1.1272 C.2          1    LIG   0.0000
  14 C14          4.7236    -5.2363    -2.0190 C.2          1    LIG   0.0000
  15 C15          5.1766    -6.5186    -1.6411 C.2          1    LIG   0.0000
  16 C16          5.4054    -7.1860    -2.8040 C.2          1    LIG   0.0000
  17 O17          5.1187    -6.3787    -3.7981 O.2          1    LIG   0.0000
  18 C18          4.7103    -5.2026    -3.3815 C.2          1    LIG   0.0000
  19 N19          4.3583    -4.1963     0.2315 N.pl3        1    LIG   0.0000
  20 N20          3.9470    -3.0362     0.7008 N.2          1    LIG   0.0000
  21 C21          0.8236     3.5006     1.0000 C.2          1    LIG   0.0000
  22 C22          2.3087     3.8214     0.9998 C.3          1    LIG   0.0000
  23 N23         -0.1874     4.4084     1.0009 N.pl3        1    LIG   0.0000
  24 C24         -0.0341     5.8001     1.0042 C.2          1    LIG   0.0000
  25 C25          0.0538     6.6054     2.0960 C.2          1    LIG   0.0000
  26 C26         -0.0003     6.1545     3.5474 C.3          1    LIG   0.0000
  27 N27          0.2018     7.8868     1.6602 N.pl3        1    LIG   0.0000
  28 C28          0.3341     9.0642     2.5307 C.3          1    LIG   0.0000
  29 N29          0.2073     7.9073     0.3484 N.pl3        1    LIG   0.0000
  30 C30          0.3399     9.0553    -0.4422 C.ar         1    LIG   0.0000
  31 C31         -0.7960     9.7563    -0.8339 C.ar         1    LIG   0.0000
  32 C32         -0.6550    10.8952    -1.6198 C.ar         1    LIG   0.0000
  33 C33          0.6119    11.3224    -2.0057 C.ar         1    LIG   0.0000
  34 C34          1.7424    10.6155    -1.6092 C.ar         1    LIG   0.0000
  35 C35          1.6102     9.4749    -0.8236 C.ar         1    LIG   0.0000
  36 C36          0.0620     6.6402    -0.1238 C.2          1    LIG   0.0000
  37 O37          0.0247     6.2925    -1.2941 O.2          1    LIG   0.0000
  38 H            4.6370    -4.9800     0.7865 H            1    LIG   0.0000
  39 H           -3.4525     3.6707     0.9967 H            1    LIG   0.0000
  40 H           -2.8546     4.9507     1.8158 H            1    LIG   0.0000
  41 H           -2.8530     4.9533     0.1828 H            1    LIG   0.0000
  42 H           -1.8096     1.6668     0.9986 H            1    LIG   0.0000
  43 H            2.8533     1.4714     0.1835 H            1    LIG   0.0000
  44 H            2.8533     1.4714     1.8165 H            1    LIG   0.0000
  45 H            3.7830    -2.5837    -2.4322 H            1    LIG   0.0000
  46 H            5.3031    -6.8646    -0.7115 H            1    LIG   0.0000
  47 H            5.7344    -8.1267    -2.8869 H            1    LIG   0.0000
  48 H            4.4407    -4.4290    -3.9549 H            1    LIG   0.0000
  49 H            2.8336     2.9702     0.9991 H            1    LIG   0.0000
  50 H            2.5348     4.3532     0.1837 H            1    LIG   0.0000
  51 H            2.5352     4.3519     1.8167 H            1    LIG   0.0000
  52 H           -0.1145     5.1617     3.5840 H            1    LIG   0.0000
  53 H            0.8502     6.4093     4.0075 H            1    LIG   0.0000
  54 H           -0.7721     6.5959     4.0051 H            1    LIG   0.0000
  55 H            0.2989     8.7766     3.4879 H            1    LIG   0.0000
  56 H            1.2080     9.5156     2.3503 H            1    LIG   0.0000
  57 H           -0.4145     9.7010     2.3462 H            1    LIG   0.0000
  58 H           -1.7040     9.4448    -0.5535 H            1    LIG   0.0000
  59 H           -1.4644    11.4071    -1.9076 H            1    LIG   0.0000
  60 H            0.7101    12.1417    -2.5707 H            1    LIG   0.0000
  61 H            2.6504    10.9272    -1.8889 H            1    LIG   0.0000
  62 H            2.4193     8.9623    -0.5362 H            1    LIG   0.0000
@<TRIPOS>BOND
   1        1        2 1
   2        2        3 2
   3        3        4 1
   4        4        5 1
   5        5        6 2
   6        5        7 1
   7        7        8 1
   8        8        9 1
   9        9       10 2
  10        9       11 1
  11       11       12 1
  12       12       13 2
  13       13       14 1
  14       14       15 1
  15       15       16 2
  16       16       17 1
  17       17       18 1
  18       18       14 2
  19       13       19 1
  20       19       20 1
  21       20       11 2
  22        4       21 2
  23       21       22 1
  24       21       23 1
  25       23        2 1
  26       23       24 1
  27       24       25 2
  28       25       26 1
  29       25       27 1
  30       27       28 1
  31       27       29 1
  32       29       30 1
  33       30       31 ar
  34       31       32 ar
  35       32       33 ar
  36       33       34 ar
  37       34       35 ar
  38       35       30 ar
  39       29       36 1
  40       36       24 1
  41       36       37 2
  42       19       38 1
  43        1       39 1
  44        1       40 1
  45        1       41 1
  46        3       42 1
  47        7       43 1
  48        7       44 1
  49       12       45 1
  50       15       46 1
  51       16       47 1
  52       18       48 1
  53       22       49 1
  54       22       50 1
  55       22       51 1
  56       26       52 1
  57       26       53 1
  58       26       54 1
  59       28       55 1
  60       28       56 1
  61       28       57 1
  62       31       58 1
  63       32       59 1
  64       33       60 1
  65       34       61 1
  66       35       62 1

@<TRIPOS>MOLECULE

  62   66
SMALL
USER_CHARGES
@<TRIPOS>ATOM
   1 C1          -2.7514     4.3838     0.9985 C.3          1    LIG   0.0000
   2 C2          -1.3742     3.7404     0.9988 C.2          1    LIG   0.0000
   3 C3          -1.1304     2.4007     0.9990 C.2          1    LIG   0.0000
   4 C4           0.2748     2.2561     1.0000 C.2          1    LIG   0.0000
   5 C5           1.0000     1.0000     1.0000 C.2          1    LIG   0.0000
   6 O6           0.4000    -0.0392     1.0000 O.2          1    LIG   0.0000
   7 C7           2.5200     1.0000     1.0000 C.3          1    LIG   0.0000
   8 O8           2.9933    -0.3388     1.0000 O.3          1    LIG   0.0000
   9 C9           3.1813    -0.8705     2.1824 C.2          1    LIG   0.0000
  10 O10          2.9548    -0.2297     3.1713 O.2          1    LIG   0.0000
  11 C11          3.6633    -2.2336     2.2962 C.2          1    LIG   0.0000
  12 C12          3.9097    -2.9251     3.5009 C.2          1    LIG   0.0000
  13 C13          4.3441    -4.1585     3.1272 C.2          1    LIG   0.0000
  14 C14          4.7258    -5.2356     4.0190 C.2          1    LIG   0.0000
  15 C15          5.1795    -6.5176     3.6411 C.2          1    LIG   0.0000
  16 C16          5.4210    -7.1805     4.8040 C.2          1    LIG   0.0000
  17 O17          5.1366    -6.3724     5.7981 O.2          1    LIG   0.0000
  18 C18          4.7150    -5.2010     5.3815 C.2          1    LIG   0.0000
  19 N19          4.3563    -4.1970     1.7685 N.pl3        1    LIG   0.0000
  20 N20          3.9470    -3.0362     1.2992 N.2          1    LIG   0.0000
  21 C21          0.8236     3.5006     1.0000 C.2          1    LIG   0.0000
  22 C22          2.3087     3.8214     0.9998 C.3          1    LIG   0.0000
  23 N23         -0.1874     4.4084     1.0009 N.pl3        1    LIG   0.0000
  24 C24         -0.0341     5.8001     1.0042 C.2          1    LIG   0.0000
  25 C25          0.0538     6.6054     2.0960 C.2          1    LIG   0.0000
  26 C26         -0.0003     6.1545     3.5474 C.3          1    LIG   0.0000
  27 N27          0.2018     7.8868     1.6602 N.pl3        1    LIG   0.0000
  28 C28          0.3341     9.0642     2.5307 C.3          1    LIG   0.0000
  29 N29          0.2073     7.9073     0.3484 N.pl3        1    LIG   0.0000
  30 C30          0.3399     9.0553    -0.4422 C.ar         1    LIG   0.0000
  31 C31         -0.7960     9.7563    -0.8339 C.ar         1    LIG   0.0000
  32 C32         -0.6550    10.8952    -1.6198 C.ar         1    LIG   0.0000
  33 C33          0.6119    11.3224    -2.0057 C.ar         1    LIG   0.0000
  34 C34          1.7424    10.6155    -1.6092 C.ar         1    LIG   0.0000
  35 C35          1.6102     9.4749    -0.8236 C.ar         1    LIG   0.0000
  36 C36          0.0620     6.6402    -0.1238 C.2          1    LIG   0.0000
  37 O37          0.0247     6.2925    -1.2941 O.2          1    LIG   0.0000
  38 H            4.6322    -4.9817     1.2135 H            1    LIG   0.0000
  39 H           -3.4525     3.6707     0.9967 H            1    LIG   0.0000
  40 H           -2.8546     4.9507     1.8158 H            1    LIG   0.0000
  41 H           -2.8530     4.9533     0.1828 H            1    LIG   0.0000
  42 H           -1.8096     1.6668     0.9986 H            1    LIG   0.0000
  43 H            2.8533     1.4714     0.1835 H            1    LIG   0.0000
  44 H            2.8533     1.4714     1.8165 H            1    LIG   0.0000
  45 H            3.7902    -2.5812     4.4322 H            1    LIG   0.0000
  46 H            5.2986    -6.8662     2.7115 H            1    LIG   0.0000
  47 H            5.7564    -8.1189     4.8869 H            1    LIG   0.0000
  48 H            4.4385    -4.4298     5.9549 H            1    LIG   0.0000
  49 H            2.8336     2.9702     0.9991 H            1    LIG   0.0000
  50 H            2.5348     4.3532     0.1837 H            1    LIG   0.0000
  51 H            2.5352     4.3519     1.8167 H            1    LIG   0.0000
  52 H           -0.1145     5.1617     3.5840 H            1    LIG   0.0000
  53 H            0.8502     6.4093     4.0075 H            1    LIG   0.0000
  54 H           -0.7721     6.5959     4.0051 H            1    LIG   0.0000
  55 H            0.2989     8.7766     3.4879 H            1    LIG   0.0000
  56 H            1.2080     9.5156     2.3503 H            1    LIG   0.0000
  57 H           -0.4145     9.7010     2.3462 H            1    LIG   0.0000
  58 H           -1.7040     9.4448    -0.5535 H            1    LIG   0.0000
  59 H           -1.4644    11.4071    -1.9076 H            1    LIG   0.0000
  60 H            0.7101    12.1417    -2.5707 H            1    LIG   0.0000
  61 H            2.6504    10.9272    -1.8889 H            1    LIG   0.0000
  62 H            2.4193     8.9623    -0.5362 H            1    LIG   0.0000
@<TRIPOS>BOND
   1        1        2 1
   2        2        3 2
   3        3        4 1
   4        4        5 1
   5        5        6 2
   6        5        7 1
   7        7        8 1
   8        8        9 1
   9        9       10 2
  10        9       11 1
  11       11       12 1
  12       12       13 2
  13       13       14 1
  14       14       15 1
  15       15       16 2
  16       16       17 1
  17       17       18 1
  18       18       14 2
  19       13       19 1
  20       19       20 1
  21       20       11 2
  22        4       21 2
  23       21       22 1
  24       21       23 1
  25       23        2 1
  26       23       24 1
  27       24       25 2
  28       25       26 1
  29       25       27 1
  30       27       28 1
  31       27       29 1
  32       29       30 1
  33       30       31 ar
  34       31       32 ar
  35       32       33 ar
  36       33       34 ar
  37       34       35 ar
  38       35       30 ar
  39       29       36 1
  40       36       24 1
  41       36       37 2
  42       19       38 1
  43        1       39 1
  44        1       40 1
  45        1       41 1
  46        3       42 1
  47        7       43 1
  48        7       44 1
  49       12       45 1
  50       15       46 1
  51       16       47 1
  52       18       48 1
  53       22       49 1
  54       22       50 1
  55       22       51 1
  56       26       52 1
  57       26       53 1
  58       26       54 1
  59       28       55 1
  60       28       56 1
  61       28       57 1
  62       31       58 1
  63       32       59 1
  64       33       60 1
  65       34       61 1
  66       35       62 1

