@<TRIPOS>MOLECULE
*****
 62 66 0 0 0
SMALL
USER_CHARGES

@<TRIPOS>ATOM
      1 C1         -2.7514    4.3838    0.9985 C.3     1  LIG1        0.0000
      2 C2         -1.3742    3.7404    0.9988 C.2     1  LIG1        0.0000
      3 C3         -1.1304    2.4007    0.9990 C.2     1  LIG1        0.0000
      4 C4          0.2748    2.2561    1.0000 C.2     1  LIG1        0.0000
      5 C5          1.0000    1.0000    1.0000 C.2     1  LIG1        0.0000
      6 O6          0.4000   -0.0392    1.0000 O.2     1  LIG1        0.0000
      7 C7          2.5200    1.0000    1.0000 C.3     1  LIG1        0.0000
      8 O8          2.9933   -0.3388    1.0000 O.3     1  LIG1        0.0000
      9 C9          4.2961   -0.4764    1.0000 C.2     1  LIG1        0.0000
     10 O10         5.0019    0.4941    1.0000 O.2     1  LIG1        0.0000
     11 C11         4.8853   -1.8016    1.0000 C.2     1  LIG1        0.0000
     12 C12         6.2658   -2.0920    0.9982 C.2     1  LIG1        0.0000
     13 C13         6.3494   -3.4495    0.9997 C.2     1  LIG1        0.0000
     14 C14         7.5711   -4.2296    0.9988 C.2     1  LIG1        0.0000
     15 C15         8.8894   -3.7253    0.9982 C.2     1  LIG1        0.0000
     16 C16         9.7013   -4.8165    1.0034 C.2     1  LIG1        0.0000
     17 O17         8.9421   -5.8869    1.0046 O.2     1  LIG1        0.0000
     18 C18         7.6634   -5.5895    0.9992 C.2     1  LIG1        0.0000
     19 N19         5.0819   -3.9404    1.0010 N.pl3   1  LIG1        0.0000
     20 N20         4.2291   -2.9365    1.0000 N.2     1  LIG1        0.0000
     21 C21         0.8236    3.5006    1.0000 C.2     1  LIG1        0.0000
     22 C22         2.3087    3.8214    0.9998 C.3     1  LIG1        0.0000
     23 N23        -0.1874    4.4084    1.0009 N.pl3   1  LIG1        0.0000
     24 C24        -0.0341    5.8001    1.0042 C.2     1  LIG1        0.0000
     25 C25         0.0561    6.6103   -0.0837 C.2     1  LIG1        0.0000
     26 C26         0.0114    6.1652   -1.5372 C.3     1  LIG1        0.0000
     27 N27         0.1904    7.8911    0.3581 N.pl3   1  LIG1        0.0000
     28 C28         0.3179    9.0731   -0.5069 C.3     1  LIG1        0.0000
     29 N29         0.1887    7.9062    1.6700 N.am    1  LIG1        0.0000
     30 C30         0.3089    9.0519    2.4660 C.3     1  LIG1        0.0000
     31 C31         1.5699    9.4869    2.8604 C.3     1  LIG1        0.0000
     32 C32         1.6798   10.6255    3.6516 C.3     1  LIG1        0.0000
     33 C33         0.5361   11.3165    4.0402 C.3     1  LIG1        0.0000
     34 C34        -0.7210   10.8745    3.6410 C.3     1  LIG1        0.0000
     35 C35        -0.8398    9.7361    2.8500 C.3     1  LIG1        0.0000
     36 C36         0.0545    6.6357    2.1362 C.2     1  LIG1        0.0000
     37 O37         0.0146    6.2828    3.3049 O.2     1  LIG1        0.0000
     38 H           4.8358   -4.9097    1.0025 H       1  LIG1        0.0000
     39 H          -3.4525    3.6707    0.9967 H       1  LIG1        0.0000
     40 H          -2.8546    4.9507    1.8158 H       1  LIG1        0.0000
     41 H          -2.8530    4.9533    0.1828 H       1  LIG1        0.0000
     42 H          -1.8096    1.6668    0.9986 H       1  LIG1        0.0000
     43 H           2.8533    1.4714    0.1835 H       1  LIG1        0.0000
     44 H           2.8533    1.4714    1.8165 H       1  LIG1        0.0000
     45 H           7.0225   -1.4384    0.9962 H       1  LIG1        0.0000
     46 H           9.1685   -2.7650    0.9946 H       1  LIG1        0.0000
     47 H          10.7012   -4.8051    1.0058 H       1  LIG1        0.0000
     48 H           6.9019   -6.2375    0.9958 H       1  LIG1        0.0000
     49 H           2.8336    2.9702    0.9991 H       1  LIG1        0.0000
     50 H           2.5348    4.3532    0.1837 H       1  LIG1        0.0000
     51 H           2.5352    4.3519    1.8167 H       1  LIG1        0.0000
     52 H          -0.0932    5.1715   -1.5785 H       1  LIG1        0.0000
     53 H          -0.7630    6.6012   -1.9957 H       1  LIG1        0.0000
     54 H           0.8610    6.4301   -1.9933 H       1  LIG1        0.0000
     55 H           0.2902    8.7893   -1.4653 H       1  LIG1        0.0000
     56 H          -0.4368    9.7031   -0.3238 H       1  LIG1        0.0000
     57 H           1.1871    9.5308   -0.3198 H       1  LIG1        0.0000
     58 H           2.3884    8.9866    2.5780 H       1  LIG1        0.0000
     59 H           2.5810   10.9477    3.9415 H       1  LIG1        0.0000
     60 H           0.6183   12.1348    4.6090 H       1  LIG1        0.0000
     61 H          -1.5395   11.3751    3.9226 H       1  LIG1        0.0000
     62 H          -1.7410    9.4133    2.5607 H       1  LIG1        0.0000
@<TRIPOS>BOND
     1     1     2    1
     2     2     3    2
     3     3     4    1
     4     4     5    1
     5     5     6    2
     6     5     7    1
     7     7     8    1
     8     8     9    1
     9     9    10    2
    10     9    11    1
    11    11    12    1
    12    12    13    2
    13    13    14    1
    14    14    15    1
    15    15    16    2
    16    16    17    1
    17    17    18    1
    18    18    14    2
    19    13    19    1
    20    19    20    1
    21    20    11    2
    22     4    21    2
    23    21    22    1
    24    21    23    1
    25    23     2    1
    26    23    24    1
    27    24    25    2
    28    25    26    1
    29    25    27    1
    30    27    28    1
    31    27    29    1
    32    29    30    1
    33    30    31   ar
    34    31    32   ar
    35    32    33   ar
    36    33    34   ar
    37    34    35   ar
    38    35    30   ar
    39    29    36   am
    40    36    24    1
    41    36    37    2
    42    19    38    1
    43     1    39    1
    44     1    40    1
    45     1    41    1
    46     3    42    1
    47     7    43    1
    48     7    44    1
    49    12    45    1
    50    15    46    1
    51    16    47    1
    52    18    48    1
    53    22    49    1
    54    22    50    1
    55    22    51    1
    56    26    52    1
    57    26    53    1
    58    26    54    1
    59    28    55    1
    60    28    56    1
    61    28    57    1
    62    31    58    1
    63    32    59    1
    64    33    60    1
    65    34    61    1
    66    35    62    1
