@<TRIPOS>MOLECULE
*****
 62 66 0 0 0
SMALL
USER_CHARGES

@<TRIPOS>ATOM
      1 C1         -0.0548    5.9407    1.0015 C.3     1  LIG1        0.0000
      2 C2         -0.1861    4.4263    1.0012 C.2     1  LIG1        0.0000
      3 C3          0.8521    3.5453    1.0010 C.2     1  LIG1        0.0000
      4 C4          0.2748    2.2561    1.0000 C.2     1  LIG1        0.0000
      5 C5          1.0000    1.0000    1.0000 C.2     1  LIG1        0.0000
      6 O6          0.4000   -0.0392    1.0000 O.2     1  LIG1        0.0000
      7 C7          2.5200    1.0000    1.0000 C.3     1  LIG1        0.0000
      8 O8          2.9933   -0.3388    1.0000 O.3     1  LIG1        0.0000
      9 C9          4.2961   -0.4764    1.0000 C.2     1  LIG1        0.0000
     10 O10         5.0019    0.4941    1.0000 O.2     1  LIG1        0.0000
     11 C11         4.8853   -1.8016    1.0000 C.2     1  LIG1        0.0000
     12 C12         4.1762   -3.0211    1.0018 C.2     1  LIG1        0.0000
     13 C13         5.1281   -3.9925    1.0003 C.2     1  LIG1        0.0000
     14 C14         4.8889   -5.4222    1.0012 C.2     1  LIG1        0.0000
     15 C15         3.6314   -6.0631    1.0018 C.2     1  LIG1        0.0000
     16 C16         3.8977   -7.3969    0.9966 C.2     1  LIG1        0.0000
     17 O17         5.2010   -7.5503    0.9954 O.2     1  LIG1        0.0000
     18 C18         5.8367   -6.4017    1.0008 C.2     1  LIG1        0.0000
     19 N19         6.3417   -3.3803    0.9990 N.pl3   1  LIG1        0.0000
     20 N20         6.1675   -2.0746    1.0000 N.2     1  LIG1        0.0000
     21 C21        -1.0774    2.4030    1.0000 C.2     1  LIG1        0.0000
     22 C22        -2.0978    1.2773    1.0002 C.3     1  LIG1        0.0000
     23 N23        -1.3581    3.7325    0.9991 N.pl3   1  LIG1        0.0000
     24 C24        -2.6400    4.2956    0.9958 C.2     1  LIG1        0.0000
     25 C25        -3.3867    4.6226    2.0837 C.2     1  LIG1        0.0000
     26 C26        -2.9789    4.4387    3.5372 C.3     1  LIG1        0.0000
     27 N27        -4.5631    5.1467    1.6419 N.pl3   1  LIG1        0.0000
     28 C28        -5.6505    5.6272    2.5069 C.3     1  LIG1        0.0000
     29 N29        -4.5753    5.1557    0.3300 N.am    1  LIG1        0.0000
     30 C30        -5.6276    5.6245   -0.4660 C.3     1  LIG1        0.0000
     31 C31        -6.6349    4.7499   -0.8604 C.3     1  LIG1        0.0000
     32 C32        -7.6759    5.2240   -1.6516 C.3     1  LIG1        0.0000
     33 C33        -7.7024    6.5600   -2.0402 C.3     1  LIG1        0.0000
     34 C34        -6.6910    7.4276   -1.6410 C.3     1  LIG1        0.0000
     35 C35        -5.6458    6.9614   -0.8500 C.3     1  LIG1        0.0000
     36 C36        -3.4079    4.6366   -0.1362 C.2     1  LIG1        0.0000
     37 O37        -3.0823    4.4947   -1.3049 O.2     1  LIG1        0.0000
     38 H           7.2261   -3.8469    0.9975 H       1  LIG1        0.0000
     39 H           0.9133    6.1913    1.0033 H       1  LIG1        0.0000
     40 H          -0.4941    6.3135    0.1842 H       1  LIG1        0.0000
     41 H          -0.4971    6.3135    1.8172 H       1  LIG1        0.0000
     42 H           1.8273    3.7665    1.0014 H       1  LIG1        0.0000
     43 H           2.8533    1.4714    0.1835 H       1  LIG1        0.0000
     44 H           2.8533    1.4714    1.8165 H       1  LIG1        0.0000
     45 H           3.1840   -3.1451    1.0038 H       1  LIG1        0.0000
     46 H           2.7314   -5.6271    1.0054 H       1  LIG1        0.0000
     47 H           3.2194   -8.1317    0.9942 H       1  LIG1        0.0000
     48 H           6.8280   -6.2704    1.0042 H       1  LIG1        0.0000
     49 H          -1.6231    0.3972    1.0009 H       1  LIG1        0.0000
     50 H          -2.6713    1.3474    1.8163 H       1  LIG1        0.0000
     51 H          -2.6705    1.3464    0.1833 H       1  LIG1        0.0000
     52 H          -2.0660    4.0325    3.5785 H       1  LIG1        0.0000
     53 H          -2.9693    5.3274    3.9957 H       1  LIG1        0.0000
     54 H          -3.6331    3.8354    3.9933 H       1  LIG1        0.0000
     55 H          -5.3908    5.5093    3.4653 H       1  LIG1        0.0000
     56 H          -5.8188    6.5958    2.3238 H       1  LIG1        0.0000
     57 H          -6.4815    5.1034    2.3198 H       1  LIG1        0.0000
     58 H          -6.6108    3.7909   -0.5780 H       1  LIG1        0.0000
     59 H          -8.4055    4.6046   -1.9415 H       1  LIG1        0.0000
     60 H          -8.4522    6.8980   -2.6090 H       1  LIG1        0.0000
     61 H          -6.7153    8.3868   -1.9226 H       1  LIG1        0.0000
     62 H          -4.9157    7.5805   -0.5607 H       1  LIG1        0.0000
@<TRIPOS>BOND
     1     1     2    1
     2     2     3    2
     3     3     4    1
     4     4     5    1
     5     5     6    2
     6     5     7    1
     7     7     8    1
     8     8     9    1
     9     9    10    2
    10     9    11    1
    11    11    12    1
    12    12    13    2
    13    13    14    1
    14    14    15    1
    15    15    16    2
    16    16    17    1
    17    17    18    1
    18    18    14    2
    19    13    19    1
    20    19    20    1
    21    20    11    2
    22     4    21    2
    23    21    22    1
    24    21    23    1
    25    23     2    1
    26    23    24    1
    27    24    25    2
    28    25    26    1
    29    25    27    1
    30    27    28    1
    31    27    29    1
    32    29    30    1
    33    30    31   ar
    34    31    32   ar
    35    32    33   ar
    36    33    34   ar
    37    34    35   ar
    38    35    30   ar
    39    29    36   am
    40    36    24    1
    41    36    37    2
    42    19    38    1
    43     1    39    1
    44     1    40    1
    45     1    41    1
    46     3    42    1
    47     7    43    1
    48     7    44    1
    49    12    45    1
    50    15    46    1
    51    16    47    1
    52    18    48    1
    53    22    49    1
    54    22    50    1
    55    22    51    1
    56    26    52    1
    57    26    53    1
    58    26    54    1
    59    28    55    1
    60    28    56    1
    61    28    57    1
    62    31    58    1
    63    32    59    1
    64    33    60    1
    65    34    61    1
    66    35    62    1
