@<TRIPOS>MOLECULE

  21   23
SMALL
USER_CHARGES
@<TRIPOS>ATOM
   1 C1           2.1007    -1.9812    -0.8154 C.2          1    LIG   0.0000
   2 S2           3.3646    -1.6144     0.2819 S.3          1    LIG   0.0000
   3 C3           2.7325    -0.1822     0.9478 C.2          1    LIG   0.0000
   4 C4           1.5398    -0.0208     0.3063 C.2          1    LIG   0.0000
   5 C5           1.1663    -0.9705    -0.6399 C.2          1    LIG   0.0000
   6 C6          -0.1985    -0.6159    -1.1793 C.3          1    LIG   0.0000
   7 O7          -1.1870    -1.0278    -0.2419 O.3          1    LIG   0.0000
   8 C8          -1.6799     0.0234     0.5846 C.3          1    LIG   0.0000
   9 C9          -0.6919     1.1709     0.7802 C.2          1    LIG   0.0000
  10 C10         -1.1808     2.3938     1.1262 C.2          1    LIG   0.0000
  11 S11          0.1693     3.4210     1.2765 S.3          1    LIG   0.0000
  12 C12          1.3844     2.2922     0.8882 C.2          1    LIG   0.0000
  13 C13          0.7256     1.1243     0.6613 C.2          1    LIG   0.0000
  14 H            2.0478    -2.7558    -1.4456 H            1    LIG   0.0000
  15 H            3.1405     0.4048     1.6470 H            1    LIG   0.0000
  16 H           -0.2583     0.3727    -1.3173 H            1    LIG   0.0000
  17 H           -0.3468    -1.0836    -2.0506 H            1    LIG   0.0000
  18 H           -1.9004    -0.3588     1.4821 H            1    LIG   0.0000
  19 H           -2.5102     0.3906     0.1655 H            1    LIG   0.0000
  20 H           -2.1402     2.6394     1.2643 H            1    LIG   0.0000
  21 H            2.3700     2.4536     0.8378 H            1    LIG   0.0000
@<TRIPOS>BOND
   1        1        2 1
   2        2        3 1
   3        3        4 2
   4        4        5 1
   5        5        1 2
   6        5        6 1
   7        6        7 1
   8        7        8 1
   9        8        9 1
  10        9       10 2
  11       10       11 1
  12       11       12 1
  13       12       13 2
  14       13        9 1
  15       13        4 1
  16        1       14 1
  17        3       15 1
  18        6       16 1
  19        6       17 1
  20        8       18 1
  21        8       19 1
  22       10       20 1
  23       12       21 1

@<TRIPOS>MOLECULE

  21   23
SMALL
USER_CHARGES
@<TRIPOS>ATOM
   1 C1          -0.5272     0.0012    -2.8222 C.2          1    LIG   0.0000
   2 S2          -0.0647    -1.5758    -3.2800 S.3          1    LIG   0.0000
   3 C3           0.7518    -1.9919    -1.8397 C.2          1    LIG   0.0000
   4 C4           0.6422    -0.8963    -1.0344 C.2          1    LIG   0.0000
   5 C5          -0.0578     0.2013    -1.5536 C.2          1    LIG   0.0000
   6 C6          -0.0837     1.3347    -0.5414 C.3          1    LIG   0.0000
   7 O7          -1.1064     1.1179     0.4248 O.3          1    LIG   0.0000
   8 C8          -0.9805    -0.2091     0.9182 C.3          1    LIG   0.0000
   9 C9           0.4352    -0.5257     1.3781 C.2          1    LIG   0.0000
  10 C10          1.0386    -0.5360     2.6008 C.2          1    LIG   0.0000
  11 S11          2.6448    -1.0193     2.2837 S.3          1    LIG   0.0000
  12 C12          2.5179    -1.2092     0.5931 C.2          1    LIG   0.0000
  13 C13          1.2359    -0.8862     0.2812 C.2          1    LIG   0.0000
  14 H           -1.0432     0.6546    -3.3760 H            1    LIG   0.0000
  15 H            1.2122    -2.8547    -1.6310 H            1    LIG   0.0000
  16 H            0.8014     1.3827    -0.0785 H            1    LIG   0.0000
  17 H           -0.2581     2.1968    -1.0173 H            1    LIG   0.0000
  18 H           -1.2319    -0.8474     0.1906 H            1    LIG   0.0000
  19 H           -1.6028    -0.3242     1.6924 H            1    LIG   0.0000
  20 H            0.6311    -0.3106     3.4858 H            1    LIG   0.0000
  21 H            3.2380    -1.4984    -0.0375 H            1    LIG   0.0000
@<TRIPOS>BOND
   1        1        2 1
   2        2        3 1
   3        3        4 2
   4        4        5 1
   5        5        1 2
   6        5        6 1
   7        6        7 1
   8        7        8 1
   9        8        9 1
  10        9       10 2
  11       10       11 1
  12       11       12 1
  13       12       13 2
  14       13        9 1
  15       13        4 1
  16        1       14 1
  17        3       15 1
  18        6       16 1
  19        6       17 1
  20        8       18 1
  21        8       19 1
  22       10       20 1
  23       12       21 1

@<TRIPOS>MOLECULE

  21   23
SMALL
USER_CHARGES
@<TRIPOS>ATOM
   1 C1           1.8585    -2.0556     1.2673 C.2          1    LIG   0.0000
   2 S2           3.3027    -1.1841     1.4888 S.3          1    LIG   0.0000
   3 C3           2.7517     0.3322     0.9452 C.2          1    LIG   0.0000
   4 C4           1.4378     0.1605     0.6076 C.2          1    LIG   0.0000
   5 C5           0.9382    -1.1625     0.7708 C.2          1    LIG   0.0000
   6 C6          -0.4991    -1.4575     0.3672 C.3          1    LIG   0.0000
   7 O7          -0.9089    -1.0204    -0.9285 O.3          1    LIG   0.0000
   8 C8          -1.3757     0.3219    -1.1134 C.3          1    LIG   0.0000
   9 C9          -0.5013     1.4877    -0.6217 C.2          1    LIG   0.0000
  10 C10         -0.8326     2.7968    -0.8484 C.2          1    LIG   0.0000
  11 S11          0.3595     3.7464    -0.0888 S.3          1    LIG   0.0000
  12 C12          1.3204     2.4823     0.5209 C.2          1    LIG   0.0000
  13 C13          0.7014     1.3214     0.1372 C.2          1    LIG   0.0000
  14 H            1.7085    -3.0254     1.4600 H            1    LIG   0.0000
  15 H            3.2820     1.1779     0.8849 H            1    LIG   0.0000
  16 H           -0.6263    -2.4486     0.4059 H            1    LIG   0.0000
  17 H           -1.0973    -1.0182     1.0374 H            1    LIG   0.0000
  18 H           -2.2543     0.3947    -0.6413 H            1    LIG   0.0000
  19 H           -1.5132     0.4521    -2.0953 H            1    LIG   0.0000
  20 H           -1.6231     3.1311    -1.3617 H            1    LIG   0.0000
  21 H            2.1641     2.5685     1.0506 H            1    LIG   0.0000
@<TRIPOS>BOND
   1        1        2 1
   2        2        3 1
   3        3        4 2
   4        4        5 1
   5        5        1 2
   6        5        6 1
   7        6        7 1
   8        7        8 1
   9        8        9 1
  10        9       10 2
  11       10       11 1
  12       11       12 1
  13       12       13 2
  14       13        9 1
  15       13        4 1
  16        1       14 1
  17        3       15 1
  18        6       16 1
  19        6       17 1
  20        8       18 1
  21        8       19 1
  22       10       20 1
  23       12       21 1

@<TRIPOS>MOLECULE

  21   23
SMALL
USER_CHARGES
@<TRIPOS>ATOM
   1 C1           3.0600     0.3898    -0.0349 C.2          1    LIG   0.0000
   2 S2           3.2771     2.0745     0.1720 S.3          1    LIG   0.0000
   3 C3           1.6234     2.4922     0.2280 C.2          1    LIG   0.0000
   4 C4           0.9034     1.3447     0.0861 C.2          1    LIG   0.0000
   5 C5           1.7048     0.1760    -0.0609 C.2          1    LIG   0.0000
   6 C6           1.0862    -1.2124    -0.2432 C.3          1    LIG   0.0000
   7 O7          -0.1786    -1.5563     0.3464 O.3          1    LIG   0.0000
   8 C8          -1.3636    -0.9608    -0.1936 C.3          1    LIG   0.0000
   9 C9          -1.5727     0.5422    -0.0091 C.2          1    LIG   0.0000
  10 C10         -2.8470     1.0328     0.0503 C.2          1    LIG   0.0000
  11 S11         -2.6483     2.7141     0.2529 S.3          1    LIG   0.0000
  12 C12         -0.9474     2.8043     0.2596 C.2          1    LIG   0.0000
  13 C13         -0.5394     1.5164     0.1048 C.2          1    LIG   0.0000
  14 H            3.7777    -0.3013    -0.1200 H            1    LIG   0.0000
  15 H            1.2504     3.4128     0.3439 H            1    LIG   0.0000
  16 H            0.9838    -1.3480    -1.2287 H            1    LIG   0.0000
  17 H            1.7517    -1.8667     0.1160 H            1    LIG   0.0000
  18 H           -2.1444    -1.4216     0.2284 H            1    LIG   0.0000
  19 H           -1.3625    -1.1403    -1.1773 H            1    LIG   0.0000
  20 H           -3.7036     0.5206    -0.0111 H            1    LIG   0.0000
  21 H           -0.3774     3.6203     0.3557 H            1    LIG   0.0000
@<TRIPOS>BOND
   1        1        2 1
   2        2        3 1
   3        3        4 2
   4        4        5 1
   5        5        1 2
   6        5        6 1
   7        6        7 1
   8        7        8 1
   9        8        9 1
  10        9       10 2
  11       10       11 1
  12       11       12 1
  13       12       13 2
  14       13        9 1
  15       13        4 1
  16        1       14 1
  17        3       15 1
  18        6       16 1
  19        6       17 1
  20        8       18 1
  21        8       19 1
  22       10       20 1
  23       12       21 1

@<TRIPOS>MOLECULE

  21   23
SMALL
USER_CHARGES
@<TRIPOS>ATOM
   1 C1           2.5719     1.2657    -0.7003 C.2          1    LIG   0.0000
   2 S2           3.6024    -0.0912    -0.7805 S.3          1    LIG   0.0000
   3 C3           2.4179    -1.3149    -0.7385 C.2          1    LIG   0.0000
   4 C4           1.2478    -0.6203    -0.6736 C.2          1    LIG   0.0000
   5 C5           1.2802     0.7879    -0.6582 C.2          1    LIG   0.0000
   6 C6          -0.1816     1.2289    -0.6518 C.3          1    LIG   0.0000
   7 O7          -0.8230     1.2224     0.6250 O.3          1    LIG   0.0000
   8 C8          -0.6776    -0.0274     1.2845 C.3          1    LIG   0.0000
   9 C9          -0.9203    -1.1990     0.3383 C.2          1    LIG   0.0000
  10 C10         -1.9583    -2.0825     0.2574 C.2          1    LIG   0.0000
  11 S11         -1.5771    -3.1497    -1.0201 S.3          1    LIG   0.0000
  12 C12         -0.0734    -2.4958    -1.4689 C.2          1    LIG   0.0000
  13 C13          0.0853    -1.4477    -0.6173 C.2          1    LIG   0.0000
  14 H            2.8519     2.2256    -0.6865 H            1    LIG   0.0000
  15 H            2.5500    -2.3060    -0.7571 H            1    LIG   0.0000
  16 H           -0.2234     2.1607    -1.0124 H            1    LIG   0.0000
  17 H           -0.6908     0.6150    -1.2550 H            1    LIG   0.0000
  18 H           -1.3365    -0.0758     2.0352 H            1    LIG   0.0000
  19 H            0.2505    -0.0940     1.6507 H            1    LIG   0.0000
  20 H           -2.7772    -2.1008     0.8311 H            1    LIG   0.0000
  21 H            0.5471    -2.8079    -2.1884 H            1    LIG   0.0000
@<TRIPOS>BOND
   1        1        2 1
   2        2        3 1
   3        3        4 2
   4        4        5 1
   5        5        1 2
   6        5        6 1
   7        6        7 1
   8        7        8 1
   9        8        9 1
  10        9       10 2
  11       10       11 1
  12       11       12 1
  13       12       13 2
  14       13        9 1
  15       13        4 1
  16        1       14 1
  17        3       15 1
  18        6       16 1
  19        6       17 1
  20        8       18 1
  21        8       19 1
  22       10       20 1
  23       12       21 1

