@<TRIPOS>MOLECULE
*****
 21 23 0 0 0
SMALL
USER_CHARGES

@<TRIPOS>ATOM
      1 C1          2.5719    1.2657   -0.7003 C.2     1  LIG1        0.0000
      2 S2          3.6024   -0.0912   -0.7805 S.3     1  LIG1        0.0000
      3 C3          2.4179   -1.3149   -0.7385 C.2     1  LIG1        0.0000
      4 C4          1.2478   -0.6203   -0.6736 C.2     1  LIG1        0.0000
      5 C5          1.2802    0.7879   -0.6582 C.2     1  LIG1        0.0000
      6 C6         -0.1816    1.2289   -0.6518 C.3     1  LIG1        0.0000
      7 O7         -0.8230    1.2224    0.6250 O.3     1  LIG1        0.0000
      8 C8         -0.6776   -0.0274    1.2845 C.3     1  LIG1        0.0000
      9 C9         -0.9203   -1.1990    0.3383 C.2     1  LIG1        0.0000
     10 C10        -1.9583   -2.0825    0.2574 C.2     1  LIG1        0.0000
     11 S11        -1.5771   -3.1497   -1.0201 S.3     1  LIG1        0.0000
     12 C12        -0.0734   -2.4958   -1.4689 C.2     1  LIG1        0.0000
     13 C13         0.0853   -1.4477   -0.6173 C.2     1  LIG1        0.0000
     14 H           2.8519    2.2256   -0.6865 H       1  LIG1        0.0000
     15 H           2.5500   -2.3060   -0.7571 H       1  LIG1        0.0000
     16 H          -0.2234    2.1607   -1.0124 H       1  LIG1        0.0000
     17 H          -0.6908    0.6150   -1.2550 H       1  LIG1        0.0000
     18 H          -1.3365   -0.0758    2.0352 H       1  LIG1        0.0000
     19 H           0.2505   -0.0940    1.6507 H       1  LIG1        0.0000
     20 H          -2.7772   -2.1008    0.8311 H       1  LIG1        0.0000
     21 H           0.5471   -2.8079   -2.1884 H       1  LIG1        0.0000
@<TRIPOS>BOND
     1     1     2    1
     2     2     3    1
     3     3     4    2
     4     4     5    1
     5     5     1    2
     6     5     6    1
     7     6     7    1
     8     7     8    1
     9     8     9    1
    10     9    10    2
    11    10    11    1
    12    11    12    1
    13    12    13    2
    14    13     9    1
    15    13     4    1
    16     1    14    1
    17     3    15    1
    18     6    16    1
    19     6    17    1
    20     8    18    1
    21     8    19    1
    22    10    20    1
    23    12    21    1
