@<TRIPOS>MOLECULE
*****
 21 23 0 0 0
SMALL
USER_CHARGES

@<TRIPOS>ATOM
      1 C1         -0.5272    0.0012   -2.8222 C.2     1  LIG1        0.0000
      2 S2         -0.0647   -1.5758   -3.2800 S.3     1  LIG1        0.0000
      3 C3          0.7518   -1.9919   -1.8397 C.2     1  LIG1        0.0000
      4 C4          0.6422   -0.8963   -1.0344 C.2     1  LIG1        0.0000
      5 C5         -0.0578    0.2013   -1.5536 C.2     1  LIG1        0.0000
      6 C6         -0.0837    1.3347   -0.5414 C.3     1  LIG1        0.0000
      7 O7         -1.1064    1.1179    0.4248 O.3     1  LIG1        0.0000
      8 C8         -0.9805   -0.2091    0.9182 C.3     1  LIG1        0.0000
      9 C9          0.4352   -0.5257    1.3781 C.2     1  LIG1        0.0000
     10 C10         1.0386   -0.5360    2.6008 C.2     1  LIG1        0.0000
     11 S11         2.6448   -1.0193    2.2837 S.3     1  LIG1        0.0000
     12 C12         2.5179   -1.2092    0.5931 C.2     1  LIG1        0.0000
     13 C13         1.2359   -0.8862    0.2812 C.2     1  LIG1        0.0000
     14 H          -1.0432    0.6546   -3.3760 H       1  LIG1        0.0000
     15 H           1.2122   -2.8547   -1.6310 H       1  LIG1        0.0000
     16 H           0.8014    1.3827   -0.0785 H       1  LIG1        0.0000
     17 H          -0.2581    2.1968   -1.0173 H       1  LIG1        0.0000
     18 H          -1.2319   -0.8474    0.1906 H       1  LIG1        0.0000
     19 H          -1.6028   -0.3242    1.6924 H       1  LIG1        0.0000
     20 H           0.6311   -0.3106    3.4858 H       1  LIG1        0.0000
     21 H           3.2380   -1.4984   -0.0375 H       1  LIG1        0.0000
@<TRIPOS>BOND
     1     1     2    1
     2     2     3    1
     3     3     4    2
     4     4     5    1
     5     5     1    2
     6     5     6    1
     7     6     7    1
     8     7     8    1
     9     8     9    1
    10     9    10    2
    11    10    11    1
    12    11    12    1
    13    12    13    2
    14    13     9    1
    15    13     4    1
    16     1    14    1
    17     3    15    1
    18     6    16    1
    19     6    17    1
    20     8    18    1
    21     8    19    1
    22    10    20    1
    23    12    21    1
