@<TRIPOS>MOLECULE
*****
 21 23 0 0 0
SMALL
USER_CHARGES

@<TRIPOS>ATOM
      1 C1          1.8585   -2.0556    1.2673 C.2     1  LIG1        0.0000
      2 S2          3.3027   -1.1841    1.4888 S.3     1  LIG1        0.0000
      3 C3          2.7517    0.3322    0.9452 C.2     1  LIG1        0.0000
      4 C4          1.4378    0.1605    0.6076 C.2     1  LIG1        0.0000
      5 C5          0.9382   -1.1625    0.7708 C.2     1  LIG1        0.0000
      6 C6         -0.4991   -1.4575    0.3672 C.3     1  LIG1        0.0000
      7 O7         -0.9089   -1.0204   -0.9285 O.3     1  LIG1        0.0000
      8 C8         -1.3757    0.3219   -1.1134 C.3     1  LIG1        0.0000
      9 C9         -0.5013    1.4877   -0.6217 C.2     1  LIG1        0.0000
     10 C10        -0.8326    2.7968   -0.8484 C.2     1  LIG1        0.0000
     11 S11         0.3595    3.7464   -0.0888 S.3     1  LIG1        0.0000
     12 C12         1.3204    2.4823    0.5209 C.2     1  LIG1        0.0000
     13 C13         0.7014    1.3214    0.1372 C.2     1  LIG1        0.0000
     14 H           1.7085   -3.0254    1.4600 H       1  LIG1        0.0000
     15 H           3.2820    1.1779    0.8849 H       1  LIG1        0.0000
     16 H          -0.6263   -2.4486    0.4059 H       1  LIG1        0.0000
     17 H          -1.0973   -1.0182    1.0374 H       1  LIG1        0.0000
     18 H          -2.2543    0.3947   -0.6413 H       1  LIG1        0.0000
     19 H          -1.5132    0.4521   -2.0953 H       1  LIG1        0.0000
     20 H          -1.6231    3.1311   -1.3617 H       1  LIG1        0.0000
     21 H           2.1641    2.5685    1.0506 H       1  LIG1        0.0000
@<TRIPOS>BOND
     1     1     2    1
     2     2     3    1
     3     3     4    2
     4     4     5    1
     5     5     1    2
     6     5     6    1
     7     6     7    1
     8     7     8    1
     9     8     9    1
    10     9    10    2
    11    10    11    1
    12    11    12    1
    13    12    13    2
    14    13     9    1
    15    13     4    1
    16     1    14    1
    17     3    15    1
    18     6    16    1
    19     6    17    1
    20     8    18    1
    21     8    19    1
    22    10    20    1
    23    12    21    1
