@<TRIPOS>MOLECULE
*****
 21 23 0 0 0
SMALL
USER_CHARGES

@<TRIPOS>ATOM
      1 C1          2.1007   -1.9812   -0.8154 C.2     1  LIG1        0.0000
      2 S2          3.3646   -1.6144    0.2819 S.3     1  LIG1        0.0000
      3 C3          2.7325   -0.1822    0.9478 C.2     1  LIG1        0.0000
      4 C4          1.5398   -0.0208    0.3063 C.2     1  LIG1        0.0000
      5 C5          1.1663   -0.9705   -0.6399 C.2     1  LIG1        0.0000
      6 C6         -0.1985   -0.6159   -1.1793 C.3     1  LIG1        0.0000
      7 O7         -1.1870   -1.0278   -0.2419 O.3     1  LIG1        0.0000
      8 C8         -1.6799    0.0234    0.5846 C.3     1  LIG1        0.0000
      9 C9         -0.6919    1.1709    0.7802 C.2     1  LIG1        0.0000
     10 C10        -1.1808    2.3938    1.1262 C.2     1  LIG1        0.0000
     11 S11         0.1693    3.4210    1.2765 S.3     1  LIG1        0.0000
     12 C12         1.3844    2.2922    0.8882 C.2     1  LIG1        0.0000
     13 C13         0.7256    1.1243    0.6613 C.2     1  LIG1        0.0000
     14 H           2.0478   -2.7558   -1.4456 H       1  LIG1        0.0000
     15 H           3.1405    0.4048    1.6470 H       1  LIG1        0.0000
     16 H          -0.2583    0.3727   -1.3173 H       1  LIG1        0.0000
     17 H          -0.3468   -1.0836   -2.0506 H       1  LIG1        0.0000
     18 H          -1.9004   -0.3588    1.4821 H       1  LIG1        0.0000
     19 H          -2.5102    0.3906    0.1655 H       1  LIG1        0.0000
     20 H          -2.1402    2.6394    1.2643 H       1  LIG1        0.0000
     21 H           2.3700    2.4536    0.8378 H       1  LIG1        0.0000
@<TRIPOS>BOND
     1     1     2    1
     2     2     3    1
     3     3     4    2
     4     4     5    1
     5     5     1    2
     6     5     6    1
     7     6     7    1
     8     7     8    1
     9     8     9    1
    10     9    10    2
    11    10    11    1
    12    11    12    1
    13    12    13    2
    14    13     9    1
    15    13     4    1
    16     1    14    1
    17     3    15    1
    18     6    16    1
    19     6    17    1
    20     8    18    1
    21     8    19    1
    22    10    20    1
    23    12    21    1
