@<TRIPOS>MOLECULE
*****
 21 23 0 0 0
SMALL
USER_CHARGES

@<TRIPOS>ATOM
      1 C1          3.0600    0.3898   -0.0349 C.2     1  LIG1        0.0000
      2 S2          3.2771    2.0745    0.1720 S.3     1  LIG1        0.0000
      3 C3          1.6234    2.4922    0.2280 C.2     1  LIG1        0.0000
      4 C4          0.9034    1.3447    0.0861 C.2     1  LIG1        0.0000
      5 C5          1.7048    0.1760   -0.0609 C.2     1  LIG1        0.0000
      6 C6          1.0862   -1.2124   -0.2432 C.3     1  LIG1        0.0000
      7 O7         -0.1786   -1.5563    0.3464 O.3     1  LIG1        0.0000
      8 C8         -1.3636   -0.9608   -0.1936 C.3     1  LIG1        0.0000
      9 C9         -1.5727    0.5422   -0.0091 C.2     1  LIG1        0.0000
     10 C10        -2.8470    1.0328    0.0503 C.2     1  LIG1        0.0000
     11 S11        -2.6483    2.7141    0.2529 S.3     1  LIG1        0.0000
     12 C12        -0.9474    2.8043    0.2596 C.2     1  LIG1        0.0000
     13 C13        -0.5394    1.5164    0.1048 C.2     1  LIG1        0.0000
     14 H           3.7777   -0.3013   -0.1200 H       1  LIG1        0.0000
     15 H           1.2504    3.4128    0.3439 H       1  LIG1        0.0000
     16 H           0.9838   -1.3480   -1.2287 H       1  LIG1        0.0000
     17 H           1.7517   -1.8667    0.1160 H       1  LIG1        0.0000
     18 H          -2.1444   -1.4216    0.2284 H       1  LIG1        0.0000
     19 H          -1.3625   -1.1403   -1.1773 H       1  LIG1        0.0000
     20 H          -3.7036    0.5206   -0.0111 H       1  LIG1        0.0000
     21 H          -0.3774    3.6203    0.3557 H       1  LIG1        0.0000
@<TRIPOS>BOND
     1     1     2    1
     2     2     3    1
     3     3     4    2
     4     4     5    1
     5     5     1    2
     6     5     6    1
     7     6     7    1
     8     7     8    1
     9     8     9    1
    10     9    10    2
    11    10    11    1
    12    11    12    1
    13    12    13    2
    14    13     9    1
    15    13     4    1
    16     1    14    1
    17     3    15    1
    18     6    16    1
    19     6    17    1
    20     8    18    1
    21     8    19    1
    22    10    20    1
    23    12    21    1
