@<TRIPOS>MOLECULE

  32   34
SMALL
USER_CHARGES
@<TRIPOS>ATOM
   1 C1           3.7281    -0.7185    -0.0366 C.3          1    LIG   0.0000
   2 C2           2.4014     0.0239    -0.0205 C.ar         1    LIG   0.0000
   3 C3           1.2069    -0.6879    -0.0139 C.ar         1    LIG   0.0000
   4 C4          -0.0073    -0.0093     0.0007 C.ar         1    LIG   0.0000
   5 C5          -0.0265     1.3815     0.0095 C.ar         1    LIG   0.0000
   6 F6          -1.1876     2.0305     0.0238 F            1    LIG   0.0000
   7 C7           1.1692     2.0937     0.0031 C.ar         1    LIG   0.0000
   8 C8           1.1496     3.5446     0.0124 C.ar         1    LIG   0.0000
   9 C9           1.1275     4.2683    -1.1751 C.ar         1    LIG   0.0000
  10 C10          1.1080     5.6587    -1.1422 C.ar         1    LIG   0.0000
  11 C11          1.1101     6.3453     0.0676 C.ar         1    LIG   0.0000
  12 N12          1.0955     7.6684     0.3967 N.pl3        1    LIG   0.0000
  13 C13          1.1086     7.7405     1.7583 C.2          1    LIG   0.0000
  14 C14          1.0987     9.0292     2.5641 C.3          1    LIG   0.0000
  15 F15          1.0907    10.0699     1.7359 F            1    LIG   0.0000
  16 F16          0.0124     9.0644     3.3307 F            1    LIG   0.0000
  17 F17          2.1843     9.0811     3.3307 F            1    LIG   0.0000
  18 N18          1.1299     6.5316     2.2707 N.2          1    LIG   0.0000
  19 C19          1.1310     5.6351     1.2422 C.ar         1    LIG   0.0000
  20 C20          1.1510     4.2442     1.2149 C.ar         1    LIG   0.0000
  21 C21          2.3828     1.4148    -0.0121 C.ar         1    LIG   0.0000
  22 O22          3.5434     2.1058    -0.0175 O.3          1    LIG   0.0000
  23 H            1.0785     8.4396    -0.2397 H            1    LIG   0.0000
  24 H            3.5585    -1.7040    -0.0409 H            1    LIG   0.0000
  25 H            4.2419    -0.4650    -0.8562 H            1    LIG   0.0000
  26 H            4.2564    -0.4747     0.7767 H            1    LIG   0.0000
  27 H            1.2208    -1.6878    -0.0196 H            1    LIG   0.0000
  28 H           -0.8663    -0.5213     0.0048 H            1    LIG   0.0000
  29 H            1.1257     3.7890    -2.0528 H            1    LIG   0.0000
  30 H            1.0922     6.1720    -2.0003 H            1    LIG   0.0000
  31 H            1.1666     3.7373     2.0768 H            1    LIG   0.0000
  32 H            4.4160     1.6175    -0.0284 H            1    LIG   0.0000
@<TRIPOS>BOND
   1        1        2 1
   2        2        3 ar
   3        3        4 ar
   4        4        5 ar
   5        5        6 1
   6        5        7 ar
   7        7        8 1
   8        8        9 ar
   9        9       10 ar
  10       10       11 ar
  11       11       12 1
  12       12       13 1
  13       13       14 1
  14       14       15 1
  15       14       16 1
  16       14       17 1
  17       13       18 2
  18       18       19 1
  19       19       11 ar
  20       19       20 ar
  21       20        8 ar
  22        7       21 ar
  23       21        2 ar
  24       21       22 1
  25       12       23 1
  26        1       24 1
  27        1       25 1
  28        1       26 1
  29        3       27 1
  30        4       28 1
  31        9       29 1
  32       10       30 1
  33       20       31 1
  34       22       32 1

@<TRIPOS>MOLECULE

  32   34
SMALL
USER_CHARGES
@<TRIPOS>ATOM
   1 C1           3.7281    -0.7185    -0.0366 C.3          1    LIG   0.0000
   2 C2           2.4014     0.0239    -0.0205 C.ar         1    LIG   0.0000
   3 C3           1.2069    -0.6879    -0.0139 C.ar         1    LIG   0.0000
   4 C4          -0.0073    -0.0093     0.0007 C.ar         1    LIG   0.0000
   5 C5          -0.0265     1.3815     0.0095 C.ar         1    LIG   0.0000
   6 F6          -1.1876     2.0305     0.0238 F            1    LIG   0.0000
   7 C7           1.1692     2.0937     0.0031 C.ar         1    LIG   0.0000
   8 C8           1.1496     3.5446     0.0124 C.ar         1    LIG   0.0000
   9 C9           0.5332     4.2593    -1.0093 C.ar         1    LIG   0.0000
  10 C10          0.5258     5.6498    -0.9791 C.ar         1    LIG   0.0000
  11 C11          1.1289     6.3456     0.0635 C.ar         1    LIG   0.0000
  12 N12          1.2742     7.6711     0.3481 N.pl3        1    LIG   0.0000
  13 C13          1.9659     7.7535     1.5202 C.2          1    LIG   0.0000
  14 C14          2.3537     9.0484     2.2155 C.3          1    LIG   0.0000
  15 F15          2.4518    10.0227     1.3155 F            1    LIG   0.0000
  16 F16          1.4244     9.3654     3.1126 F            1    LIG   0.0000
  17 F17          3.5243     8.8900     2.8267 F            1    LIG   0.0000
  18 N18          2.2466     6.5486     1.9605 N.2          1    LIG   0.0000
  19 C19          1.7378     5.6444     1.0745 C.ar         1    LIG   0.0000
  20 C20          1.7485     4.2533     1.0490 C.ar         1    LIG   0.0000
  21 C21          2.3828     1.4148    -0.0121 C.ar         1    LIG   0.0000
  22 O22          3.5434     2.1058    -0.0175 O.3          1    LIG   0.0000
  23 H            0.9375     8.4374    -0.1991 H            1    LIG   0.0000
  24 H            3.5585    -1.7040    -0.0409 H            1    LIG   0.0000
  25 H            4.2419    -0.4650    -0.8562 H            1    LIG   0.0000
  26 H            4.2564    -0.4747     0.7767 H            1    LIG   0.0000
  27 H            1.2208    -1.6878    -0.0196 H            1    LIG   0.0000
  28 H           -0.8663    -0.5213     0.0048 H            1    LIG   0.0000
  29 H            0.0952     3.7733    -1.7656 H            1    LIG   0.0000
  30 H            0.0806     6.1565    -1.7174 H            1    LIG   0.0000
  31 H            2.1954     3.7530     1.7906 H            1    LIG   0.0000
  32 H            4.4160     1.6175    -0.0284 H            1    LIG   0.0000
@<TRIPOS>BOND
   1        1        2 1
   2        2        3 ar
   3        3        4 ar
   4        4        5 ar
   5        5        6 1
   6        5        7 ar
   7        7        8 1
   8        8        9 ar
   9        9       10 ar
  10       10       11 ar
  11       11       12 1
  12       12       13 1
  13       13       14 1
  14       14       15 1
  15       14       16 1
  16       14       17 1
  17       13       18 2
  18       18       19 1
  19       19       11 ar
  20       19       20 ar
  21       20        8 ar
  22        7       21 ar
  23       21        2 ar
  24       21       22 1
  25       12       23 1
  26        1       24 1
  27        1       25 1
  28        1       26 1
  29        3       27 1
  30        4       28 1
  31        9       29 1
  32       10       30 1
  33       20       31 1
  34       22       32 1

@<TRIPOS>MOLECULE

  32   34
SMALL
USER_CHARGES
@<TRIPOS>ATOM
   1 C1           3.7281    -0.7185    -0.0366 C.3          1    LIG   0.0000
   2 C2           2.4014     0.0239    -0.0205 C.ar         1    LIG   0.0000
   3 C3           1.2069    -0.6879    -0.0139 C.ar         1    LIG   0.0000
   4 C4          -0.0073    -0.0093     0.0007 C.ar         1    LIG   0.0000
   5 C5          -0.0265     1.3815     0.0095 C.ar         1    LIG   0.0000
   6 F6          -1.1876     2.0305     0.0238 F            1    LIG   0.0000
   7 C7           1.1692     2.0937     0.0031 C.ar         1    LIG   0.0000
   8 C8           1.1496     3.5446     0.0124 C.ar         1    LIG   0.0000
   9 C9           1.7252     4.2754    -1.0216 C.ar         1    LIG   0.0000
  10 C10          1.6938     5.6656    -0.9923 C.ar         1    LIG   0.0000
  11 C11          1.0917     6.3451     0.0617 C.ar         1    LIG   0.0000
  12 N12          0.9164     7.6663     0.3495 N.pl3        1    LIG   0.0000
  13 C13          0.2471     7.7303     1.5357 C.2          1    LIG   0.0000
  14 C14         -0.1625     9.0143     2.2384 C.3          1    LIG   0.0000
  15 F15         -0.2771     9.9920     1.3440 F            1    LIG   0.0000
  16 F16         -1.3302     8.8326     2.8486 F            1    LIG   0.0000
  17 F17          0.7613     9.3419     3.1374 F            1    LIG   0.0000
  18 N18          0.0077     6.5183     1.9810 N.2          1    LIG   0.0000
  19 C19          0.5216     5.6279     1.0840 C.ar         1    LIG   0.0000
  20 C20          0.5506     4.2371     1.0598 C.ar         1    LIG   0.0000
  21 C21          2.3828     1.4148    -0.0121 C.ar         1    LIG   0.0000
  22 O22          3.5434     2.1058    -0.0175 O.3          1    LIG   0.0000
  23 H            1.2209     8.4413    -0.2043 H            1    LIG   0.0000
  24 H            3.5585    -1.7040    -0.0409 H            1    LIG   0.0000
  25 H            4.2419    -0.4650    -0.8562 H            1    LIG   0.0000
  26 H            4.2564    -0.4747     0.7767 H            1    LIG   0.0000
  27 H            1.2208    -1.6878    -0.0196 H            1    LIG   0.0000
  28 H           -0.8663    -0.5213     0.0048 H            1    LIG   0.0000
  29 H            2.1617     3.8012    -1.7862 H            1    LIG   0.0000
  30 H            2.1099     6.1840    -1.7394 H            1    LIG   0.0000
  31 H            0.1325     3.7251     1.8102 H            1    LIG   0.0000
  32 H            4.4160     1.6175    -0.0284 H            1    LIG   0.0000
@<TRIPOS>BOND
   1        1        2 1
   2        2        3 ar
   3        3        4 ar
   4        4        5 ar
   5        5        6 1
   6        5        7 ar
   7        7        8 1
   8        8        9 ar
   9        9       10 ar
  10       10       11 ar
  11       11       12 1
  12       12       13 1
  13       13       14 1
  14       14       15 1
  15       14       16 1
  16       14       17 1
  17       13       18 2
  18       18       19 1
  19       19       11 ar
  20       19       20 ar
  21       20        8 ar
  22        7       21 ar
  23       21        2 ar
  24       21       22 1
  25       12       23 1
  26        1       24 1
  27        1       25 1
  28        1       26 1
  29        3       27 1
  30        4       28 1
  31        9       29 1
  32       10       30 1
  33       20       31 1
  34       22       32 1

@<TRIPOS>MOLECULE

  32   34
SMALL
USER_CHARGES
@<TRIPOS>ATOM
   1 C1           3.7281    -0.7185    -0.0366 C.3          1    LIG   0.0000
   2 C2           2.4014     0.0239    -0.0205 C.ar         1    LIG   0.0000
   3 C3           1.2069    -0.6879    -0.0139 C.ar         1    LIG   0.0000
   4 C4          -0.0073    -0.0093     0.0007 C.ar         1    LIG   0.0000
   5 C5          -0.0265     1.3815     0.0095 C.ar         1    LIG   0.0000
   6 F6          -1.1876     2.0305     0.0238 F            1    LIG   0.0000
   7 C7           1.1692     2.0937     0.0031 C.ar         1    LIG   0.0000
   8 C8           1.1496     3.5446     0.0124 C.ar         1    LIG   0.0000
   9 C9           0.1014     4.2506    -0.5684 C.ar         1    LIG   0.0000
  10 C10          0.1031     5.6414    -0.5467 C.ar         1    LIG   0.0000
  11 C11          1.1432     6.3459     0.0506 C.ar         1    LIG   0.0000
  12 N12          1.4047     7.6737     0.2165 N.pl3        1    LIG   0.0000
  13 C13          2.5893     7.7660     0.8854 C.2          1    LIG   0.0000
  14 C14          3.2663     9.0666     1.2860 C.3          1    LIG   0.0000
  15 F15          3.3911     9.8488     0.2176 F            1    LIG   0.0000
  16 F16          2.5297     9.6851     2.2046 F            1    LIG   0.0000
  17 F17          4.4703     8.8040     1.7863 F            1    LIG   0.0000
  18 N18          3.0585     6.5648     1.1334 N.2          1    LIG   0.0000
  19 C19          2.1795     5.6532     0.6258 C.ar         1    LIG   0.0000
  20 C20          2.1829     4.2620     0.6066 C.ar         1    LIG   0.0000
  21 C21          2.3828     1.4148    -0.0121 C.ar         1    LIG   0.0000
  22 O22          3.5434     2.1058    -0.0175 O.3          1    LIG   0.0000
  23 H            0.8357     8.4354    -0.0934 H            1    LIG   0.0000
  24 H            3.5585    -1.7040    -0.0409 H            1    LIG   0.0000
  25 H            4.2419    -0.4650    -0.8562 H            1    LIG   0.0000
  26 H            4.2564    -0.4747     0.7767 H            1    LIG   0.0000
  27 H            1.2208    -1.6878    -0.0196 H            1    LIG   0.0000
  28 H           -0.8663    -0.5213     0.0048 H            1    LIG   0.0000
  29 H           -0.6535     3.7583    -1.0016 H            1    LIG   0.0000
  30 H           -0.6541     6.1418    -0.9665 H            1    LIG   0.0000
  31 H            2.9433     3.7680     1.0283 H            1    LIG   0.0000
  32 H            4.4160     1.6175    -0.0284 H            1    LIG   0.0000
@<TRIPOS>BOND
   1        1        2 1
   2        2        3 ar
   3        3        4 ar
   4        4        5 ar
   5        5        6 1
   6        5        7 ar
   7        7        8 1
   8        8        9 ar
   9        9       10 ar
  10       10       11 ar
  11       11       12 1
  12       12       13 1
  13       13       14 1
  14       14       15 1
  15       14       16 1
  16       14       17 1
  17       13       18 2
  18       18       19 1
  19       19       11 ar
  20       19       20 ar
  21       20        8 ar
  22        7       21 ar
  23       21        2 ar
  24       21       22 1
  25       12       23 1
  26        1       24 1
  27        1       25 1
  28        1       26 1
  29        3       27 1
  30        4       28 1
  31        9       29 1
  32       10       30 1
  33       20       31 1
  34       22       32 1

@<TRIPOS>MOLECULE

  32   34
SMALL
USER_CHARGES
@<TRIPOS>ATOM
   1 C1           3.7281    -0.7185    -0.0366 C.3          1    LIG   0.0000
   2 C2           2.4014     0.0239    -0.0205 C.ar         1    LIG   0.0000
   3 C3           1.2069    -0.6879    -0.0139 C.ar         1    LIG   0.0000
   4 C4          -0.0073    -0.0093     0.0007 C.ar         1    LIG   0.0000
   5 C5          -0.0265     1.3815     0.0095 C.ar         1    LIG   0.0000
   6 F6          -1.1876     2.0305     0.0238 F            1    LIG   0.0000
   7 C7           1.1692     2.0937     0.0031 C.ar         1    LIG   0.0000
   8 C8           1.1496     3.5446     0.0124 C.ar         1    LIG   0.0000
   9 C9           2.1661     4.2786    -0.5898 C.ar         1    LIG   0.0000
  10 C10          2.1262     5.6688    -0.5695 C.ar         1    LIG   0.0000
  11 C11          1.0788     6.3450     0.0474 C.ar         1    LIG   0.0000
  12 N12          0.7849     7.6654     0.2190 N.pl3        1    LIG   0.0000
  13 C13         -0.3877     7.7257     0.9122 C.2          1    LIG   0.0000
  14 C14         -1.0920     9.0077     1.3257 C.3          1    LIG   0.0000
  15 F15         -1.2335     9.7977     0.2652 F            1    LIG   0.0000
  16 F16         -2.2902     8.7146     1.8232 F            1    LIG   0.0000
  17 F17         -0.3687     9.6324     2.2506 F            1    LIG   0.0000
  18 N18         -0.8194     6.5124     1.1689 N.2          1    LIG   0.0000
  19 C19          0.0729     5.6247     0.6422 C.ar         1    LIG   0.0000
  20 C20          0.1082     4.2340     0.6252 C.ar         1    LIG   0.0000
  21 C21          2.3828     1.4148    -0.0121 C.ar         1    LIG   0.0000
  22 O22          3.5434     2.1058    -0.0175 O.3          1    LIG   0.0000
  23 H            1.3265     8.4421    -0.1025 H            1    LIG   0.0000
  24 H            3.5585    -1.7040    -0.0409 H            1    LIG   0.0000
  25 H            4.2419    -0.4650    -0.8562 H            1    LIG   0.0000
  26 H            4.2564    -0.4747     0.7767 H            1    LIG   0.0000
  27 H            1.2208    -1.6878    -0.0196 H            1    LIG   0.0000
  28 H           -0.8663    -0.5213     0.0048 H            1    LIG   0.0000
  29 H            2.9258     3.8067    -1.0373 H            1    LIG   0.0000
  30 H            2.8607     6.1894    -1.0046 H            1    LIG   0.0000
  31 H           -0.6298     3.7196     1.0622 H            1    LIG   0.0000
  32 H            4.4160     1.6175    -0.0284 H            1    LIG   0.0000
@<TRIPOS>BOND
   1        1        2 1
   2        2        3 ar
   3        3        4 ar
   4        4        5 ar
   5        5        6 1
   6        5        7 ar
   7        7        8 1
   8        8        9 ar
   9        9       10 ar
  10       10       11 ar
  11       11       12 1
  12       12       13 1
  13       13       14 1
  14       14       15 1
  15       14       16 1
  16       14       17 1
  17       13       18 2
  18       18       19 1
  19       19       11 ar
  20       19       20 ar
  21       20        8 ar
  22        7       21 ar
  23       21        2 ar
  24       21       22 1
  25       12       23 1
  26        1       24 1
  27        1       25 1
  28        1       26 1
  29        3       27 1
  30        4       28 1
  31        9       29 1
  32       10       30 1
  33       20       31 1
  34       22       32 1

@<TRIPOS>MOLECULE

  32   34
SMALL
USER_CHARGES
@<TRIPOS>ATOM
   1 C1           3.7281    -0.7185    -0.0366 C.3          1    LIG   0.0000
   2 C2           2.4014     0.0239    -0.0205 C.ar         1    LIG   0.0000
   3 C3           1.2069    -0.6879    -0.0139 C.ar         1    LIG   0.0000
   4 C4          -0.0073    -0.0093     0.0007 C.ar         1    LIG   0.0000
   5 C5          -0.0265     1.3815     0.0095 C.ar         1    LIG   0.0000
   6 F6          -1.1876     2.0305     0.0238 F            1    LIG   0.0000
   7 C7           1.1692     2.0937     0.0031 C.ar         1    LIG   0.0000
   8 C8           1.1496     3.5446     0.0124 C.ar         1    LIG   0.0000
   9 C9           1.1524     4.2534     1.2091 C.ar         1    LIG   0.0000
  10 C10          1.1345     5.6441     1.1940 C.ar         1    LIG   0.0000
  11 C11          1.1137     6.3459    -0.0069 C.ar         1    LIG   0.0000
  12 N12          1.0926     7.6730    -0.3190 N.pl3        1    LIG   0.0000
  13 C13          1.0774     7.7621    -1.6795 C.2          1    LIG   0.0000
  14 C14          1.0524     9.0609    -2.4688 C.3          1    LIG   0.0000
  15 F15          1.0577     8.7887    -3.7706 F            1    LIG   0.0000
  16 F16         -0.0469     9.7443    -2.1632 F            1    LIG   0.0000
  17 F17          2.1246     9.7861    -2.1631 F            1    LIG   0.0000
  18 N18          1.0885     6.5597    -2.2075 N.2          1    LIG   0.0000
  19 C19          1.1118     5.6505    -1.1905 C.ar         1    LIG   0.0000
  20 C20          1.1293     4.2593    -1.1810 C.ar         1    LIG   0.0000
  21 C21          2.3828     1.4148    -0.0121 C.ar         1    LIG   0.0000
  22 O22          3.5434     2.1058    -0.0175 O.3          1    LIG   0.0000
  23 H            1.0890     8.4361     0.3272 H            1    LIG   0.0000
  24 H            3.5585    -1.7040    -0.0409 H            1    LIG   0.0000
  25 H            4.2419    -0.4650    -0.8562 H            1    LIG   0.0000
  26 H            4.2564    -0.4747     0.7767 H            1    LIG   0.0000
  27 H            1.2208    -1.6878    -0.0196 H            1    LIG   0.0000
  28 H           -0.8663    -0.5213     0.0048 H            1    LIG   0.0000
  29 H            1.1674     3.7631     2.0805 H            1    LIG   0.0000
  30 H            1.1366     6.1466     2.0586 H            1    LIG   0.0000
  31 H            1.1271     3.7632    -2.0493 H            1    LIG   0.0000
  32 H            4.4160     1.6175    -0.0284 H            1    LIG   0.0000
@<TRIPOS>BOND
   1        1        2 1
   2        2        3 ar
   3        3        4 ar
   4        4        5 ar
   5        5        6 1
   6        5        7 ar
   7        7        8 1
   8        8        9 ar
   9        9       10 ar
  10       10       11 ar
  11       11       12 1
  12       12       13 1
  13       13       14 1
  14       14       15 1
  15       14       16 1
  16       14       17 1
  17       13       18 2
  18       18       19 1
  19       19       11 ar
  20       19       20 ar
  21       20        8 ar
  22        7       21 ar
  23       21        2 ar
  24       21       22 1
  25       12       23 1
  26        1       24 1
  27        1       25 1
  28        1       26 1
  29        3       27 1
  30        4       28 1
  31        9       29 1
  32       10       30 1
  33       20       31 1
  34       22       32 1

@<TRIPOS>MOLECULE

  32   34
SMALL
USER_CHARGES
@<TRIPOS>ATOM
   1 C1           3.7281    -0.7185    -0.0366 C.3          1    LIG   0.0000
   2 C2           2.4014     0.0239    -0.0205 C.ar         1    LIG   0.0000
   3 C3           1.2069    -0.6879    -0.0139 C.ar         1    LIG   0.0000
   4 C4          -0.0073    -0.0093     0.0007 C.ar         1    LIG   0.0000
   5 C5          -0.0265     1.3815     0.0095 C.ar         1    LIG   0.0000
   6 F6          -1.1876     2.0305     0.0238 F            1    LIG   0.0000
   7 C7           1.1692     2.0937     0.0031 C.ar         1    LIG   0.0000
   8 C8           1.1496     3.5446     0.0124 C.ar         1    LIG   0.0000
   9 C9           1.7468     4.2625     1.0432 C.ar         1    LIG   0.0000
  10 C10          1.7167     5.6530     1.0309 C.ar         1    LIG   0.0000
  11 C11          1.0949     6.3456    -0.0028 C.ar         1    LIG   0.0000
  12 N12          0.9139     7.6702    -0.2704 N.pl3        1    LIG   0.0000
  13 C13          0.2201     7.7490    -1.4415 C.2          1    LIG   0.0000
  14 C14         -0.2026     9.0417    -2.1202 C.3          1    LIG   0.0000
  15 F15         -0.1316     8.8933    -3.4400 F            1    LIG   0.0000
  16 F16         -1.4525     9.3362    -1.7738 F            1    LIG   0.0000
  17 F17          0.6064    10.0268    -1.7406 F            1    LIG   0.0000
  18 N18         -0.0282     6.5427    -1.8972 N.2          1    LIG   0.0000
  19 C19          0.5050     5.6412    -1.0228 C.ar         1    LIG   0.0000
  20 C20          0.5318     4.2502    -1.0152 C.ar         1    LIG   0.0000
  21 C21          2.3828     1.4148    -0.0121 C.ar         1    LIG   0.0000
  22 O22          3.5434     2.1058    -0.0175 O.3          1    LIG   0.0000
  23 H            1.2300     8.4383     0.2866 H            1    LIG   0.0000
  24 H            3.5585    -1.7040    -0.0409 H            1    LIG   0.0000
  25 H            4.2419    -0.4650    -0.8562 H            1    LIG   0.0000
  26 H            4.2564    -0.4747     0.7767 H            1    LIG   0.0000
  27 H            1.2208    -1.6878    -0.0196 H            1    LIG   0.0000
  28 H           -0.8663    -0.5213     0.0048 H            1    LIG   0.0000
  29 H            2.1978     3.7788     1.7933 H            1    LIG   0.0000
  30 H            2.1483     6.1620     1.7757 H            1    LIG   0.0000
  31 H            0.0983     3.7475    -1.7631 H            1    LIG   0.0000
  32 H            4.4160     1.6175    -0.0284 H            1    LIG   0.0000
@<TRIPOS>BOND
   1        1        2 1
   2        2        3 ar
   3        3        4 ar
   4        4        5 ar
   5        5        6 1
   6        5        7 ar
   7        7        8 1
   8        8        9 ar
   9        9       10 ar
  10       10       11 ar
  11       11       12 1
  12       12       13 1
  13       13       14 1
  14       14       15 1
  15       14       16 1
  16       14       17 1
  17       13       18 2
  18       18       19 1
  19       19       11 ar
  20       19       20 ar
  21       20        8 ar
  22        7       21 ar
  23       21        2 ar
  24       21       22 1
  25       12       23 1
  26        1       24 1
  27        1       25 1
  28        1       26 1
  29        3       27 1
  30        4       28 1
  31        9       29 1
  32       10       30 1
  33       20       31 1
  34       22       32 1

@<TRIPOS>MOLECULE

  32   34
SMALL
USER_CHARGES
@<TRIPOS>ATOM
   1 C1           3.7281    -0.7185    -0.0366 C.3          1    LIG   0.0000
   2 C2           2.4014     0.0239    -0.0205 C.ar         1    LIG   0.0000
   3 C3           1.2069    -0.6879    -0.0139 C.ar         1    LIG   0.0000
   4 C4          -0.0073    -0.0093     0.0007 C.ar         1    LIG   0.0000
   5 C5          -0.0265     1.3815     0.0095 C.ar         1    LIG   0.0000
   6 F6          -1.1876     2.0305     0.0238 F            1    LIG   0.0000
   7 C7           1.1692     2.0937     0.0031 C.ar         1    LIG   0.0000
   8 C8           1.1496     3.5446     0.0124 C.ar         1    LIG   0.0000
   9 C9           0.5548     4.2463     1.0556 C.ar         1    LIG   0.0000
  10 C10          0.5487     5.6372     1.0441 C.ar         1    LIG   0.0000
  11 C11          1.1321     6.3461    -0.0010 C.ar         1    LIG   0.0000
  12 N12          1.2717     7.6751    -0.2718 N.pl3        1    LIG   0.0000
  13 C13          1.9388     7.7722    -1.4570 C.2          1    LIG   0.0000
  14 C14          2.3136     9.0758    -2.1431 C.3          1    LIG   0.0000
  15 F15          2.2484     8.9172    -3.4620 F            1    LIG   0.0000
  16 F16          1.4687    10.0324    -1.7693 F            1    LIG   0.0000
  17 F17          3.5517     9.4182    -1.7984 F            1    LIG   0.0000
  18 N18          2.2107     6.5730    -1.9177 N.2          1    LIG   0.0000
  19 C19          1.7212     5.6577    -1.0323 C.ar         1    LIG   0.0000
  20 C20          1.7297     4.2664    -1.0259 C.ar         1    LIG   0.0000
  21 C21          2.3828     1.4148    -0.0121 C.ar         1    LIG   0.0000
  22 O22          3.5434     2.1058    -0.0175 O.3          1    LIG   0.0000
  23 H            0.9466     8.4344     0.2918 H            1    LIG   0.0000
  24 H            3.5585    -1.7040    -0.0409 H            1    LIG   0.0000
  25 H            4.2419    -0.4650    -0.8562 H            1    LIG   0.0000
  26 H            4.2564    -0.4747     0.7767 H            1    LIG   0.0000
  27 H            1.2208    -1.6878    -0.0196 H            1    LIG   0.0000
  28 H           -0.8663    -0.5213     0.0048 H            1    LIG   0.0000
  29 H            0.1313     3.7508     1.8140 H            1    LIG   0.0000
  30 H            0.1190     6.1345     1.7977 H            1    LIG   0.0000
  31 H            2.1612     3.7755    -1.7827 H            1    LIG   0.0000
  32 H            4.4160     1.6175    -0.0284 H            1    LIG   0.0000
@<TRIPOS>BOND
   1        1        2 1
   2        2        3 ar
   3        3        4 ar
   4        4        5 ar
   5        5        6 1
   6        5        7 ar
   7        7        8 1
   8        8        9 ar
   9        9       10 ar
  10       10       11 ar
  11       11       12 1
  12       12       13 1
  13       13       14 1
  14       14       15 1
  15       14       16 1
  16       14       17 1
  17       13       18 2
  18       18       19 1
  19       19       11 ar
  20       19       20 ar
  21       20        8 ar
  22        7       21 ar
  23       21        2 ar
  24       21       22 1
  25       12       23 1
  26        1       24 1
  27        1       25 1
  28        1       26 1
  29        3       27 1
  30        4       28 1
  31        9       29 1
  32       10       30 1
  33       20       31 1
  34       22       32 1

@<TRIPOS>MOLECULE

  32   34
SMALL
USER_CHARGES
@<TRIPOS>ATOM
   1 C1           3.7281    -0.7185    -0.0366 C.3          1    LIG   0.0000
   2 C2           2.4014     0.0239    -0.0205 C.ar         1    LIG   0.0000
   3 C3           1.2069    -0.6879    -0.0139 C.ar         1    LIG   0.0000
   4 C4          -0.0073    -0.0093     0.0007 C.ar         1    LIG   0.0000
   5 C5          -0.0265     1.3815     0.0095 C.ar         1    LIG   0.0000
   6 F6          -1.1876     2.0305     0.0238 F            1    LIG   0.0000
   7 C7           1.1692     2.0937     0.0031 C.ar         1    LIG   0.0000
   8 C8           1.1496     3.5446     0.0124 C.ar         1    LIG   0.0000
   9 C9           2.1786     4.2711     0.6024 C.ar         1    LIG   0.0000
  10 C10          2.1394     5.6615     0.5985 C.ar         1    LIG   0.0000
  11 C11          1.0806     6.3453     0.0101 C.ar         1    LIG   0.0000
  12 N12          0.7834     7.6676    -0.1389 N.pl3        1    LIG   0.0000
  13 C13         -0.4033     7.7365    -0.8067 C.2          1    LIG   0.0000
  14 C14         -1.1152     9.0235    -1.1907 C.3          1    LIG   0.0000
  15 F15         -1.0784     9.1732    -2.5117 F            1    LIG   0.0000
  16 F16         -2.3808     8.9678    -0.7859 F            1    LIG   0.0000
  17 F17         -0.5091    10.0554    -0.6105 F            1    LIG   0.0000
  18 N18         -0.8401     6.5264    -1.0701 N.2          1    LIG   0.0000
  19 C19          0.0633     5.6324    -0.5741 C.ar         1    LIG   0.0000
  20 C20          0.0973     4.2415    -0.5727 C.ar         1    LIG   0.0000
  21 C21          2.3828     1.4148    -0.0121 C.ar         1    LIG   0.0000
  22 O22          3.5434     2.1058    -0.0175 O.3          1    LIG   0.0000
  23 H            1.3318     8.4403     0.1809 H            1    LIG   0.0000
  24 H            3.5585    -1.7040    -0.0409 H            1    LIG   0.0000
  25 H            4.2419    -0.4650    -0.8562 H            1    LIG   0.0000
  26 H            4.2564    -0.4747     0.7767 H            1    LIG   0.0000
  27 H            1.2208    -1.6878    -0.0196 H            1    LIG   0.0000
  28 H           -0.8663    -0.5213     0.0048 H            1    LIG   0.0000
  29 H            2.9466     3.7938     1.0293 H            1    LIG   0.0000
  30 H            2.8829     6.1767     1.0248 H            1    LIG   0.0000
  31 H           -0.6495     3.7326    -1.0008 H            1    LIG   0.0000
  32 H            4.4160     1.6175    -0.0284 H            1    LIG   0.0000
@<TRIPOS>BOND
   1        1        2 1
   2        2        3 ar
   3        3        4 ar
   4        4        5 ar
   5        5        6 1
   6        5        7 ar
   7        7        8 1
   8        8        9 ar
   9        9       10 ar
  10       10       11 ar
  11       11       12 1
  12       12       13 1
  13       13       14 1
  14       14       15 1
  15       14       16 1
  16       14       17 1
  17       13       18 2
  18       18       19 1
  19       19       11 ar
  20       19       20 ar
  21       20        8 ar
  22        7       21 ar
  23       21        2 ar
  24       21       22 1
  25       12       23 1
  26        1       24 1
  27        1       25 1
  28        1       26 1
  29        3       27 1
  30        4       28 1
  31        9       29 1
  32       10       30 1
  33       20       31 1
  34       22       32 1

@<TRIPOS>MOLECULE

  32   34
SMALL
USER_CHARGES
@<TRIPOS>ATOM
   1 C1           3.7281    -0.7185    -0.0366 C.3          1    LIG   0.0000
   2 C2           2.4014     0.0239    -0.0205 C.ar         1    LIG   0.0000
   3 C3           1.2069    -0.6879    -0.0139 C.ar         1    LIG   0.0000
   4 C4          -0.0073    -0.0093     0.0007 C.ar         1    LIG   0.0000
   5 C5          -0.0265     1.3815     0.0095 C.ar         1    LIG   0.0000
   6 F6          -1.1876     2.0305     0.0238 F            1    LIG   0.0000
   7 C7           1.1692     2.0937     0.0031 C.ar         1    LIG   0.0000
   8 C8           1.1496     3.5446     0.0124 C.ar         1    LIG   0.0000
   9 C9           0.1139     4.2431     0.6238 C.ar         1    LIG   0.0000
  10 C10          0.1164     5.6341     0.6213 C.ar         1    LIG   0.0000
  11 C11          1.1451     6.3461     0.0133 C.ar         1    LIG   0.0000
  12 N12          1.4032     7.6760    -0.1413 N.pl3        1    LIG   0.0000
  13 C13          2.5737     7.7768    -0.8335 C.2          1    LIG   0.0000
  14 C14          3.2431     9.0824    -1.2304 C.3          1    LIG   0.0000
  15 F15          3.2018     9.2177    -2.5529 F            1    LIG   0.0000
  16 F16          2.6035    10.0998    -0.6606 F            1    LIG   0.0000
  17 F17          4.5098     9.0723    -0.8251 F            1    LIG   0.0000
  18 N18          3.0378     6.5789    -1.1057 N.2          1    LIG   0.0000
  19 C19          2.1699     5.6609    -0.5905 C.ar         1    LIG   0.0000
  20 C20          2.1721     4.2696    -0.5914 C.ar         1    LIG   0.0000
  21 C21          2.3828     1.4148    -0.0121 C.ar         1    LIG   0.0000
  22 O22          3.5434     2.1058    -0.0175 O.3          1    LIG   0.0000
  23 H            0.8409     8.4336     0.1900 H            1    LIG   0.0000
  24 H            3.5585    -1.7040    -0.0409 H            1    LIG   0.0000
  25 H            4.2419    -0.4650    -0.8562 H            1    LIG   0.0000
  26 H            4.2564    -0.4747     0.7767 H            1    LIG   0.0000
  27 H            1.2208    -1.6878    -0.0196 H            1    LIG   0.0000
  28 H           -0.8663    -0.5213     0.0048 H            1    LIG   0.0000
  29 H           -0.6327     3.7453     1.0651 H            1    LIG   0.0000
  30 H           -0.6319     6.1291     1.0629 H            1    LIG   0.0000
  31 H            2.9235     3.7809    -1.0348 H            1    LIG   0.0000
  32 H            4.4160     1.6175    -0.0284 H            1    LIG   0.0000
@<TRIPOS>BOND
   1        1        2 1
   2        2        3 ar
   3        3        4 ar
   4        4        5 ar
   5        5        6 1
   6        5        7 ar
   7        7        8 1
   8        8        9 ar
   9        9       10 ar
  10       10       11 ar
  11       11       12 1
  12       12       13 1
  13       13       14 1
  14       14       15 1
  15       14       16 1
  16       14       17 1
  17       13       18 2
  18       18       19 1
  19       19       11 ar
  20       19       20 ar
  21       20        8 ar
  22        7       21 ar
  23       21        2 ar
  24       21       22 1
  25       12       23 1
  26        1       24 1
  27        1       25 1
  28        1       26 1
  29        3       27 1
  30        4       28 1
  31        9       29 1
  32       10       30 1
  33       20       31 1
  34       22       32 1

