@<TRIPOS>MOLECULE
*****
 32 34 0 0 0
SMALL
USER_CHARGES

@<TRIPOS>ATOM
      1 C1          3.7281   -0.7185   -0.0366 C.3     1  LIG1        0.0000
      2 C2          2.4014    0.0239   -0.0205 C.ar    1  LIG1        0.0000
      3 C3          1.2069   -0.6879   -0.0139 C.ar    1  LIG1        0.0000
      4 C4         -0.0073   -0.0093    0.0007 C.ar    1  LIG1        0.0000
      5 C5         -0.0265    1.3815    0.0095 C.ar    1  LIG1        0.0000
      6 F6         -1.1876    2.0305    0.0238 F       1  LIG1        0.0000
      7 C7          1.1692    2.0937    0.0031 C.ar    1  LIG1        0.0000
      8 C8          1.1496    3.5446    0.0124 C.ar    1  LIG1        0.0000
      9 C9          1.7252    4.2754   -1.0216 C.ar    1  LIG1        0.0000
     10 C10         1.6938    5.6656   -0.9923 C.ar    1  LIG1        0.0000
     11 C11         1.0917    6.3451    0.0617 C.ar    1  LIG1        0.0000
     12 N12         0.9164    7.6663    0.3495 N.pl3   1  LIG1        0.0000
     13 C13         0.2471    7.7303    1.5357 C.2     1  LIG1        0.0000
     14 C14        -0.1625    9.0143    2.2384 C.3     1  LIG1        0.0000
     15 F15        -0.2771    9.9920    1.3440 F       1  LIG1        0.0000
     16 F16        -1.3302    8.8326    2.8486 F       1  LIG1        0.0000
     17 F17         0.7613    9.3419    3.1374 F       1  LIG1        0.0000
     18 N18         0.0077    6.5183    1.9810 N.2     1  LIG1        0.0000
     19 C19         0.5216    5.6279    1.0840 C.ar    1  LIG1        0.0000
     20 C20         0.5506    4.2371    1.0598 C.ar    1  LIG1        0.0000
     21 C21         2.3828    1.4148   -0.0121 C.ar    1  LIG1        0.0000
     22 O22         3.5434    2.1058   -0.0175 O.3     1  LIG1        0.0000
     23 H           1.2209    8.4413   -0.2043 H       1  LIG1        0.0000
     24 H           3.5585   -1.7040   -0.0409 H       1  LIG1        0.0000
     25 H           4.2419   -0.4650   -0.8562 H       1  LIG1        0.0000
     26 H           4.2564   -0.4747    0.7767 H       1  LIG1        0.0000
     27 H           1.2208   -1.6878   -0.0196 H       1  LIG1        0.0000
     28 H          -0.8663   -0.5213    0.0048 H       1  LIG1        0.0000
     29 H           2.1617    3.8012   -1.7862 H       1  LIG1        0.0000
     30 H           2.1099    6.1840   -1.7394 H       1  LIG1        0.0000
     31 H           0.1325    3.7251    1.8102 H       1  LIG1        0.0000
     32 H           4.4160    1.6175   -0.0284 H       1  LIG1        0.0000
@<TRIPOS>BOND
     1     1     2    1
     2     2     3   ar
     3     3     4   ar
     4     4     5   ar
     5     5     6    1
     6     5     7   ar
     7     7     8    1
     8     8     9   ar
     9     9    10   ar
    10    10    11   ar
    11    11    12    1
    12    12    13    1
    13    13    14    1
    14    14    15    1
    15    14    16    1
    16    14    17    1
    17    13    18    2
    18    18    19    1
    19    19    11   ar
    20    19    20   ar
    21    20     8   ar
    22     7    21   ar
    23    21     2   ar
    24    21    22    1
    25    12    23    1
    26     1    24    1
    27     1    25    1
    28     1    26    1
    29     3    27    1
    30     4    28    1
    31     9    29    1
    32    10    30    1
    33    20    31    1
    34    22    32    1
