@<TRIPOS>MOLECULE
*****
 32 34 0 0 0
SMALL
USER_CHARGES

@<TRIPOS>ATOM
      1 C1          3.7281   -0.7185   -0.0366 C.3     1  LIG1        0.0000
      2 C2          2.4014    0.0239   -0.0205 C.ar    1  LIG1        0.0000
      3 C3          1.2069   -0.6879   -0.0139 C.ar    1  LIG1        0.0000
      4 C4         -0.0073   -0.0093    0.0007 C.ar    1  LIG1        0.0000
      5 C5         -0.0265    1.3815    0.0095 C.ar    1  LIG1        0.0000
      6 F6         -1.1876    2.0305    0.0238 F       1  LIG1        0.0000
      7 C7          1.1692    2.0937    0.0031 C.ar    1  LIG1        0.0000
      8 C8          1.1496    3.5446    0.0124 C.ar    1  LIG1        0.0000
      9 C9          2.1661    4.2786   -0.5898 C.ar    1  LIG1        0.0000
     10 C10         2.1262    5.6688   -0.5695 C.ar    1  LIG1        0.0000
     11 C11         1.0788    6.3450    0.0474 C.ar    1  LIG1        0.0000
     12 N12         0.7849    7.6654    0.2190 N.pl3   1  LIG1        0.0000
     13 C13        -0.3877    7.7257    0.9122 C.2     1  LIG1        0.0000
     14 C14        -1.0920    9.0077    1.3257 C.3     1  LIG1        0.0000
     15 F15        -1.2335    9.7977    0.2652 F       1  LIG1        0.0000
     16 F16        -2.2902    8.7146    1.8232 F       1  LIG1        0.0000
     17 F17        -0.3687    9.6324    2.2506 F       1  LIG1        0.0000
     18 N18        -0.8194    6.5124    1.1689 N.2     1  LIG1        0.0000
     19 C19         0.0729    5.6247    0.6422 C.ar    1  LIG1        0.0000
     20 C20         0.1082    4.2340    0.6252 C.ar    1  LIG1        0.0000
     21 C21         2.3828    1.4148   -0.0121 C.ar    1  LIG1        0.0000
     22 O22         3.5434    2.1058   -0.0175 O.3     1  LIG1        0.0000
     23 H           1.3265    8.4421   -0.1025 H       1  LIG1        0.0000
     24 H           3.5585   -1.7040   -0.0409 H       1  LIG1        0.0000
     25 H           4.2419   -0.4650   -0.8562 H       1  LIG1        0.0000
     26 H           4.2564   -0.4747    0.7767 H       1  LIG1        0.0000
     27 H           1.2208   -1.6878   -0.0196 H       1  LIG1        0.0000
     28 H          -0.8663   -0.5213    0.0048 H       1  LIG1        0.0000
     29 H           2.9258    3.8067   -1.0373 H       1  LIG1        0.0000
     30 H           2.8607    6.1894   -1.0046 H       1  LIG1        0.0000
     31 H          -0.6298    3.7196    1.0622 H       1  LIG1        0.0000
     32 H           4.4160    1.6175   -0.0284 H       1  LIG1        0.0000
@<TRIPOS>BOND
     1     1     2    1
     2     2     3   ar
     3     3     4   ar
     4     4     5   ar
     5     5     6    1
     6     5     7   ar
     7     7     8    1
     8     8     9   ar
     9     9    10   ar
    10    10    11   ar
    11    11    12    1
    12    12    13    1
    13    13    14    1
    14    14    15    1
    15    14    16    1
    16    14    17    1
    17    13    18    2
    18    18    19    1
    19    19    11   ar
    20    19    20   ar
    21    20     8   ar
    22     7    21   ar
    23    21     2   ar
    24    21    22    1
    25    12    23    1
    26     1    24    1
    27     1    25    1
    28     1    26    1
    29     3    27    1
    30     4    28    1
    31     9    29    1
    32    10    30    1
    33    20    31    1
    34    22    32    1
