@<TRIPOS>MOLECULE
*****
 32 34 0 0 0
SMALL
USER_CHARGES

@<TRIPOS>ATOM
      1 C1          3.7281   -0.7185   -0.0366 C.3     1  LIG1        0.0000
      2 C2          2.4014    0.0239   -0.0205 C.ar    1  LIG1        0.0000
      3 C3          1.2069   -0.6879   -0.0139 C.ar    1  LIG1        0.0000
      4 C4         -0.0073   -0.0093    0.0007 C.ar    1  LIG1        0.0000
      5 C5         -0.0265    1.3815    0.0095 C.ar    1  LIG1        0.0000
      6 F6         -1.1876    2.0305    0.0238 F       1  LIG1        0.0000
      7 C7          1.1692    2.0937    0.0031 C.ar    1  LIG1        0.0000
      8 C8          1.1496    3.5446    0.0124 C.ar    1  LIG1        0.0000
      9 C9          2.1786    4.2711    0.6024 C.ar    1  LIG1        0.0000
     10 C10         2.1394    5.6615    0.5985 C.ar    1  LIG1        0.0000
     11 C11         1.0806    6.3453    0.0101 C.ar    1  LIG1        0.0000
     12 N12         0.7834    7.6676   -0.1389 N.pl3   1  LIG1        0.0000
     13 C13        -0.4033    7.7365   -0.8067 C.2     1  LIG1        0.0000
     14 C14        -1.1152    9.0235   -1.1907 C.3     1  LIG1        0.0000
     15 F15        -1.0784    9.1732   -2.5117 F       1  LIG1        0.0000
     16 F16        -2.3808    8.9678   -0.7859 F       1  LIG1        0.0000
     17 F17        -0.5091   10.0554   -0.6105 F       1  LIG1        0.0000
     18 N18        -0.8401    6.5264   -1.0701 N.2     1  LIG1        0.0000
     19 C19         0.0633    5.6324   -0.5741 C.ar    1  LIG1        0.0000
     20 C20         0.0973    4.2415   -0.5727 C.ar    1  LIG1        0.0000
     21 C21         2.3828    1.4148   -0.0121 C.ar    1  LIG1        0.0000
     22 O22         3.5434    2.1058   -0.0175 O.3     1  LIG1        0.0000
     23 H           1.3318    8.4403    0.1809 H       1  LIG1        0.0000
     24 H           3.5585   -1.7040   -0.0409 H       1  LIG1        0.0000
     25 H           4.2419   -0.4650   -0.8562 H       1  LIG1        0.0000
     26 H           4.2564   -0.4747    0.7767 H       1  LIG1        0.0000
     27 H           1.2208   -1.6878   -0.0196 H       1  LIG1        0.0000
     28 H          -0.8663   -0.5213    0.0048 H       1  LIG1        0.0000
     29 H           2.9466    3.7938    1.0293 H       1  LIG1        0.0000
     30 H           2.8829    6.1767    1.0248 H       1  LIG1        0.0000
     31 H          -0.6495    3.7326   -1.0008 H       1  LIG1        0.0000
     32 H           4.4160    1.6175   -0.0284 H       1  LIG1        0.0000
@<TRIPOS>BOND
     1     1     2    1
     2     2     3   ar
     3     3     4   ar
     4     4     5   ar
     5     5     6    1
     6     5     7   ar
     7     7     8    1
     8     8     9   ar
     9     9    10   ar
    10    10    11   ar
    11    11    12    1
    12    12    13    1
    13    13    14    1
    14    14    15    1
    15    14    16    1
    16    14    17    1
    17    13    18    2
    18    18    19    1
    19    19    11   ar
    20    19    20   ar
    21    20     8   ar
    22     7    21   ar
    23    21     2   ar
    24    21    22    1
    25    12    23    1
    26     1    24    1
    27     1    25    1
    28     1    26    1
    29     3    27    1
    30     4    28    1
    31     9    29    1
    32    10    30    1
    33    20    31    1
    34    22    32    1
