@<TRIPOS>MOLECULE
*****
 32 34 0 0 0
SMALL
USER_CHARGES

@<TRIPOS>ATOM
      1 C1          3.7281   -0.7185   -0.0366 C.3     1  LIG1        0.0000
      2 C2          2.4014    0.0239   -0.0205 C.ar    1  LIG1        0.0000
      3 C3          1.2069   -0.6879   -0.0139 C.ar    1  LIG1        0.0000
      4 C4         -0.0073   -0.0093    0.0007 C.ar    1  LIG1        0.0000
      5 C5         -0.0265    1.3815    0.0095 C.ar    1  LIG1        0.0000
      6 F6         -1.1876    2.0305    0.0238 F       1  LIG1        0.0000
      7 C7          1.1692    2.0937    0.0031 C.ar    1  LIG1        0.0000
      8 C8          1.1496    3.5446    0.0124 C.ar    1  LIG1        0.0000
      9 C9          1.1524    4.2534    1.2091 C.ar    1  LIG1        0.0000
     10 C10         1.1345    5.6441    1.1940 C.ar    1  LIG1        0.0000
     11 C11         1.1137    6.3459   -0.0069 C.ar    1  LIG1        0.0000
     12 N12         1.0926    7.6730   -0.3190 N.pl3   1  LIG1        0.0000
     13 C13         1.0774    7.7621   -1.6795 C.2     1  LIG1        0.0000
     14 C14         1.0524    9.0609   -2.4688 C.3     1  LIG1        0.0000
     15 F15         1.0577    8.7887   -3.7706 F       1  LIG1        0.0000
     16 F16        -0.0469    9.7443   -2.1632 F       1  LIG1        0.0000
     17 F17         2.1246    9.7861   -2.1631 F       1  LIG1        0.0000
     18 N18         1.0885    6.5597   -2.2075 N.2     1  LIG1        0.0000
     19 C19         1.1118    5.6505   -1.1905 C.ar    1  LIG1        0.0000
     20 C20         1.1293    4.2593   -1.1810 C.ar    1  LIG1        0.0000
     21 C21         2.3828    1.4148   -0.0121 C.ar    1  LIG1        0.0000
     22 O22         3.5434    2.1058   -0.0175 O.3     1  LIG1        0.0000
     23 H           1.0890    8.4361    0.3272 H       1  LIG1        0.0000
     24 H           3.5585   -1.7040   -0.0409 H       1  LIG1        0.0000
     25 H           4.2419   -0.4650   -0.8562 H       1  LIG1        0.0000
     26 H           4.2564   -0.4747    0.7767 H       1  LIG1        0.0000
     27 H           1.2208   -1.6878   -0.0196 H       1  LIG1        0.0000
     28 H          -0.8663   -0.5213    0.0048 H       1  LIG1        0.0000
     29 H           1.1674    3.7631    2.0805 H       1  LIG1        0.0000
     30 H           1.1366    6.1466    2.0586 H       1  LIG1        0.0000
     31 H           1.1271    3.7632   -2.0493 H       1  LIG1        0.0000
     32 H           4.4160    1.6175   -0.0284 H       1  LIG1        0.0000
@<TRIPOS>BOND
     1     1     2    1
     2     2     3   ar
     3     3     4   ar
     4     4     5   ar
     5     5     6    1
     6     5     7   ar
     7     7     8    1
     8     8     9   ar
     9     9    10   ar
    10    10    11   ar
    11    11    12    1
    12    12    13    1
    13    13    14    1
    14    14    15    1
    15    14    16    1
    16    14    17    1
    17    13    18    2
    18    18    19    1
    19    19    11   ar
    20    19    20   ar
    21    20     8   ar
    22     7    21   ar
    23    21     2   ar
    24    21    22    1
    25    12    23    1
    26     1    24    1
    27     1    25    1
    28     1    26    1
    29     3    27    1
    30     4    28    1
    31     9    29    1
    32    10    30    1
    33    20    31    1
    34    22    32    1
