@<TRIPOS>MOLECULE

  33   33
SMALL
USER_CHARGES
@<TRIPOS>ATOM
   1 C1           4.3069    -5.2374     1.1523 C.3          1    LIG   0.0000
   2 C2           4.1110    -4.0536     2.0853 C.3          1    LIG   0.0000
   3 C3           3.0396    -3.1352     1.5205 C.2          1    LIG   0.0000
   4 C4           2.3423    -3.3101     0.3650 C.2          1    LIG   0.0000
   5 C5           1.3894    -2.2995     0.0585 C.2          1    LIG   0.0000
   6 C6           1.3443    -1.3156     1.0000 C.2          1    LIG   0.0000
   7 C7           0.4916    -0.1419     1.0000 C.2          1    LIG   0.0000
   8 N8           1.0000     1.0000     1.0000 N.2          1    LIG   0.0000
   9 N9           2.3700     1.0000     1.0000 N.pl3        1    LIG   0.0000
  10 C10          3.1050    -0.1025     0.3635 C.3          1    LIG   0.0000
  11 C11          4.2359     0.4630    -0.4802 C.3          1    LIG   0.0000
  12 C12          3.1050     2.1025     1.6365 C.3          1    LIG   0.0000
  13 C13          3.5738     3.0804     0.5715 C.3          1    LIG   0.0000
  14 O14          2.4490     3.5998    -0.1223 O.3          1    LIG   0.0000
  15 S15          2.4787    -1.6837     2.2149 S.3          1    LIG   0.0000
  16 H            5.0117    -5.8417     1.5239 H            1    LIG   0.0000
  17 H            3.4470    -5.7409     1.0676 H            1    LIG   0.0000
  18 H            4.5907    -4.9086     0.2516 H            1    LIG   0.0000
  19 H            3.8271    -4.3824     2.9860 H            1    LIG   0.0000
  20 H            4.9708    -3.5501     2.1701 H            1    LIG   0.0000
  21 H            2.4904    -4.0994    -0.2309 H            1    LIG   0.0000
  22 H            0.8146    -2.3100    -0.7598 H            1    LIG   0.0000
  23 H           -0.5029    -0.2465     1.0000 H            1    LIG   0.0000
  24 H            2.4830    -0.6248    -0.2199 H            1    LIG   0.0000
  25 H            3.4830    -0.7022     1.0688 H            1    LIG   0.0000
  26 H            4.7359    -0.2870    -0.9132 H            1    LIG   0.0000
  27 H            3.8579     1.0626    -1.1855 H            1    LIG   0.0000
  28 H            4.8579     0.9853     0.1032 H            1    LIG   0.0000
  29 H            3.8971     1.7368     2.1251 H            1    LIG   0.0000
  30 H            2.5044     2.5749     2.2816 H            1    LIG   0.0000
  31 H            4.0738     3.8304     1.0045 H            1    LIG   0.0000
  32 H            4.1744     2.6080    -0.0736 H            1    LIG   0.0000
  33 H            2.7575     4.2431    -0.8230 H            1    LIG   0.0000
@<TRIPOS>BOND
   1        1        2 1
   2        2        3 1
   3        3        4 2
   4        4        5 1
   5        5        6 2
   6        6        7 1
   7        7        8 2
   8        8        9 1
   9        9       10 1
  10       10       11 1
  11        9       12 1
  12       12       13 1
  13       13       14 1
  14        6       15 1
  15       15        3 1
  16        1       16 1
  17        1       17 1
  18        1       18 1
  19        2       19 1
  20        2       20 1
  21        4       21 1
  22        5       22 1
  23        7       23 1
  24       10       24 1
  25       10       25 1
  26       11       26 1
  27       11       27 1
  28       11       28 1
  29       12       29 1
  30       12       30 1
  31       13       31 1
  32       13       32 1
  33       14       33 1

@<TRIPOS>MOLECULE

  33   33
SMALL
USER_CHARGES
@<TRIPOS>ATOM
   1 C1           4.3069    -5.2374     1.1523 C.3          1    LIG   0.0000
   2 C2           4.1110    -4.0536     2.0853 C.3          1    LIG   0.0000
   3 C3           3.0396    -3.1352     1.5205 C.2          1    LIG   0.0000
   4 C4           2.3423    -3.3101     0.3650 C.2          1    LIG   0.0000
   5 C5           1.3894    -2.2995     0.0585 C.2          1    LIG   0.0000
   6 C6           1.3443    -1.3156     1.0000 C.2          1    LIG   0.0000
   7 C7           0.4916    -0.1419     1.0000 C.2          1    LIG   0.0000
   8 N8           1.0000     1.0000     1.0000 N.2          1    LIG   0.0000
   9 N9           2.3700     1.0000     1.0000 N.pl3        1    LIG   0.0000
  10 C10          3.1050    -0.1025     0.3635 C.3          1    LIG   0.0000
  11 C11          4.2359     0.4630    -0.4802 C.3          1    LIG   0.0000
  12 C12          3.1050     2.1025     1.6365 C.3          1    LIG   0.0000
  13 C13          3.5738     1.6691     3.0159 C.3          1    LIG   0.0000
  14 O14          4.4267     0.5404     2.8930 O.3          1    LIG   0.0000
  15 S15          2.4787    -1.6837     2.2149 S.3          1    LIG   0.0000
  16 H            5.0117    -5.8417     1.5239 H            1    LIG   0.0000
  17 H            3.4470    -5.7409     1.0676 H            1    LIG   0.0000
  18 H            4.5907    -4.9086     0.2516 H            1    LIG   0.0000
  19 H            3.8271    -4.3824     2.9860 H            1    LIG   0.0000
  20 H            4.9708    -3.5501     2.1701 H            1    LIG   0.0000
  21 H            2.4904    -4.0994    -0.2309 H            1    LIG   0.0000
  22 H            0.8146    -2.3100    -0.7598 H            1    LIG   0.0000
  23 H           -0.5029    -0.2465     1.0000 H            1    LIG   0.0000
  24 H            2.4830    -0.6248    -0.2199 H            1    LIG   0.0000
  25 H            3.4830    -0.7022     1.0688 H            1    LIG   0.0000
  26 H            4.7359    -0.2870    -0.9132 H            1    LIG   0.0000
  27 H            3.8579     1.0626    -1.1855 H            1    LIG   0.0000
  28 H            4.8579     0.9853     0.1032 H            1    LIG   0.0000
  29 H            2.5044     2.8974     1.7231 H            1    LIG   0.0000
  30 H            3.8971     2.3428     1.0755 H            1    LIG   0.0000
  31 H            4.0738     2.4191     3.4489 H            1    LIG   0.0000
  32 H            2.7817     1.4288     3.5770 H            1    LIG   0.0000
  33 H            4.7351     0.2553     3.8005 H            1    LIG   0.0000
@<TRIPOS>BOND
   1        1        2 1
   2        2        3 1
   3        3        4 2
   4        4        5 1
   5        5        6 2
   6        6        7 1
   7        7        8 2
   8        8        9 1
   9        9       10 1
  10       10       11 1
  11        9       12 1
  12       12       13 1
  13       13       14 1
  14        6       15 1
  15       15        3 1
  16        1       16 1
  17        1       17 1
  18        1       18 1
  19        2       19 1
  20        2       20 1
  21        4       21 1
  22        5       22 1
  23        7       23 1
  24       10       24 1
  25       10       25 1
  26       11       26 1
  27       11       27 1
  28       11       28 1
  29       12       29 1
  30       12       30 1
  31       13       31 1
  32       13       32 1
  33       14       33 1

@<TRIPOS>MOLECULE

  33   33
SMALL
USER_CHARGES
@<TRIPOS>ATOM
   1 C1           4.3069    -5.2374     1.1523 C.3          1    LIG   0.0000
   2 C2           4.1110    -4.0536     2.0853 C.3          1    LIG   0.0000
   3 C3           3.0396    -3.1352     1.5205 C.2          1    LIG   0.0000
   4 C4           2.3423    -3.3101     0.3650 C.2          1    LIG   0.0000
   5 C5           1.3894    -2.2995     0.0585 C.2          1    LIG   0.0000
   6 C6           1.3443    -1.3156     1.0000 C.2          1    LIG   0.0000
   7 C7           0.4916    -0.1419     1.0000 C.2          1    LIG   0.0000
   8 N8           1.0000     1.0000     1.0000 N.2          1    LIG   0.0000
   9 N9           2.3700     1.0000     1.0000 N.pl3        1    LIG   0.0000
  10 C10          3.1050    -0.1025     0.3635 C.3          1    LIG   0.0000
  11 C11          4.2359     0.4630    -0.4802 C.3          1    LIG   0.0000
  12 C12          3.1050     2.1025     1.6365 C.3          1    LIG   0.0000
  13 C13          2.1361     3.2180     1.9932 C.3          1    LIG   0.0000
  14 O14          1.1542     2.7229     2.8916 O.3          1    LIG   0.0000
  15 S15          2.4787    -1.6837     2.2149 S.3          1    LIG   0.0000
  16 H            5.0117    -5.8417     1.5239 H            1    LIG   0.0000
  17 H            3.4470    -5.7409     1.0676 H            1    LIG   0.0000
  18 H            4.5907    -4.9086     0.2516 H            1    LIG   0.0000
  19 H            3.8271    -4.3824     2.9860 H            1    LIG   0.0000
  20 H            4.9708    -3.5501     2.1701 H            1    LIG   0.0000
  21 H            2.4904    -4.0994    -0.2309 H            1    LIG   0.0000
  22 H            0.8146    -2.3100    -0.7598 H            1    LIG   0.0000
  23 H           -0.5029    -0.2465     1.0000 H            1    LIG   0.0000
  24 H            2.4830    -0.6248    -0.2199 H            1    LIG   0.0000
  25 H            3.4830    -0.7022     1.0688 H            1    LIG   0.0000
  26 H            4.7359    -0.2870    -0.9132 H            1    LIG   0.0000
  27 H            3.8579     1.0626    -1.1855 H            1    LIG   0.0000
  28 H            4.8579     0.9853     0.1032 H            1    LIG   0.0000
  29 H            3.7965     2.4512     1.0039 H            1    LIG   0.0000
  30 H            3.5509     1.7699     2.4675 H            1    LIG   0.0000
  31 H            2.6361     3.9680     2.4262 H            1    LIG   0.0000
  32 H            1.6902     3.5506     1.1623 H            1    LIG   0.0000
  33 H            0.5168     3.4568     3.1263 H            1    LIG   0.0000
@<TRIPOS>BOND
   1        1        2 1
   2        2        3 1
   3        3        4 2
   4        4        5 1
   5        5        6 2
   6        6        7 1
   7        7        8 2
   8        8        9 1
   9        9       10 1
  10       10       11 1
  11        9       12 1
  12       12       13 1
  13       13       14 1
  14        6       15 1
  15       15        3 1
  16        1       16 1
  17        1       17 1
  18        1       18 1
  19        2       19 1
  20        2       20 1
  21        4       21 1
  22        5       22 1
  23        7       23 1
  24       10       24 1
  25       10       25 1
  26       11       26 1
  27       11       27 1
  28       11       28 1
  29       12       29 1
  30       12       30 1
  31       13       31 1
  32       13       32 1
  33       14       33 1

@<TRIPOS>MOLECULE

  33   33
SMALL
USER_CHARGES
@<TRIPOS>ATOM
   1 C1           4.3025    -5.2406     0.8446 C.3          1    LIG   0.0000
   2 C2           4.1081    -4.0556    -0.0873 C.3          1    LIG   0.0000
   3 C3           3.0378    -3.1365     0.4782 C.2          1    LIG   0.0000
   4 C4           2.3403    -3.3116     1.6336 C.2          1    LIG   0.0000
   5 C5           1.3873    -2.3010     1.9400 C.2          1    LIG   0.0000
   6 C6           1.3443    -1.3156     1.0000 C.2          1    LIG   0.0000
   7 C7           0.4916    -0.1419     1.0000 C.2          1    LIG   0.0000
   8 N8           1.0000     1.0000     1.0000 N.2          1    LIG   0.0000
   9 N9           2.3700     1.0000     1.0000 N.pl3        1    LIG   0.0000
  10 C10          3.1050    -0.1025     1.6365 C.3          1    LIG   0.0000
  11 C11          4.2359     0.4630     2.4802 C.3          1    LIG   0.0000
  12 C12          3.1050     2.1025     0.3635 C.3          1    LIG   0.0000
  13 C13          3.5738     1.6691    -1.0159 C.3          1    LIG   0.0000
  14 O14          2.4490     1.3279    -1.8126 O.3          1    LIG   0.0000
  15 S15          2.4787    -1.6837    -0.2149 S.3          1    LIG   0.0000
  16 H            5.0067    -5.8453     0.4725 H            1    LIG   0.0000
  17 H            4.5865    -4.9130     1.7456 H            1    LIG   0.0000
  18 H            3.4420    -5.7432     0.9286 H            1    LIG   0.0000
  19 H            4.9686    -3.5531    -0.1714 H            1    LIG   0.0000
  20 H            3.8241    -4.3832    -0.9884 H            1    LIG   0.0000
  21 H            2.4884    -4.1008     2.2295 H            1    LIG   0.0000
  22 H            0.8110    -2.3126     2.7572 H            1    LIG   0.0000
  23 H           -0.5029    -0.2465     1.0000 H            1    LIG   0.0000
  24 H            3.4830    -0.7022     0.9312 H            1    LIG   0.0000
  25 H            2.4830    -0.6248     2.2199 H            1    LIG   0.0000
  26 H            4.7359    -0.2870     2.9132 H            1    LIG   0.0000
  27 H            4.8579     0.9853     1.8968 H            1    LIG   0.0000
  28 H            3.8579     1.0626     3.1855 H            1    LIG   0.0000
  29 H            3.8971     2.3428     0.9245 H            1    LIG   0.0000
  30 H            2.5044     2.8974     0.2769 H            1    LIG   0.0000
  31 H            4.0738     2.4191    -1.4489 H            1    LIG   0.0000
  32 H            4.1744     0.8742    -0.9294 H            1    LIG   0.0000
  33 H            2.7575     1.0428    -2.7201 H            1    LIG   0.0000
@<TRIPOS>BOND
   1        1        2 1
   2        2        3 1
   3        3        4 2
   4        4        5 1
   5        5        6 2
   6        6        7 1
   7        7        8 2
   8        8        9 1
   9        9       10 1
  10       10       11 1
  11        9       12 1
  12       12       13 1
  13       13       14 1
  14        6       15 1
  15       15        3 1
  16        1       16 1
  17        1       17 1
  18        1       18 1
  19        2       19 1
  20        2       20 1
  21        4       21 1
  22        5       22 1
  23        7       23 1
  24       10       24 1
  25       10       25 1
  26       11       26 1
  27       11       27 1
  28       11       28 1
  29       12       29 1
  30       12       30 1
  31       13       31 1
  32       13       32 1
  33       14       33 1

@<TRIPOS>MOLECULE

  33   33
SMALL
USER_CHARGES
@<TRIPOS>ATOM
   1 C1           4.3025    -5.2406     0.8446 C.3          1    LIG   0.0000
   2 C2           4.1081    -4.0556    -0.0873 C.3          1    LIG   0.0000
   3 C3           3.0378    -3.1365     0.4782 C.2          1    LIG   0.0000
   4 C4           2.3403    -3.3116     1.6336 C.2          1    LIG   0.0000
   5 C5           1.3873    -2.3010     1.9400 C.2          1    LIG   0.0000
   6 C6           1.3443    -1.3156     1.0000 C.2          1    LIG   0.0000
   7 C7           0.4916    -0.1419     1.0000 C.2          1    LIG   0.0000
   8 N8           1.0000     1.0000     1.0000 N.2          1    LIG   0.0000
   9 N9           2.3700     1.0000     1.0000 N.pl3        1    LIG   0.0000
  10 C10          3.1050    -0.1025     1.6365 C.3          1    LIG   0.0000
  11 C11          4.2359     0.4630     2.4802 C.3          1    LIG   0.0000
  12 C12          3.1050     2.1025     0.3635 C.3          1    LIG   0.0000
  13 C13          3.5738     3.0804     1.4285 C.3          1    LIG   0.0000
  14 O14          4.8617     2.6978     1.8884 O.3          1    LIG   0.0000
  15 S15          2.4787    -1.6837    -0.2149 S.3          1    LIG   0.0000
  16 H            5.0067    -5.8453     0.4725 H            1    LIG   0.0000
  17 H            4.5865    -4.9130     1.7456 H            1    LIG   0.0000
  18 H            3.4420    -5.7432     0.9286 H            1    LIG   0.0000
  19 H            4.9686    -3.5531    -0.1714 H            1    LIG   0.0000
  20 H            3.8241    -4.3832    -0.9884 H            1    LIG   0.0000
  21 H            2.4884    -4.1008     2.2295 H            1    LIG   0.0000
  22 H            0.8110    -2.3126     2.7572 H            1    LIG   0.0000
  23 H           -0.5029    -0.2465     1.0000 H            1    LIG   0.0000
  24 H            3.4830    -0.7022     0.9312 H            1    LIG   0.0000
  25 H            2.4830    -0.6248     2.2199 H            1    LIG   0.0000
  26 H            4.7359    -0.2870     2.9132 H            1    LIG   0.0000
  27 H            4.8579     0.9853     1.8968 H            1    LIG   0.0000
  28 H            3.8579     1.0626     3.1855 H            1    LIG   0.0000
  29 H            2.5044     2.5749    -0.2816 H            1    LIG   0.0000
  30 H            3.8971     1.7368    -0.1251 H            1    LIG   0.0000
  31 H            3.6186     4.0006     1.0396 H            1    LIG   0.0000
  32 H            2.9306     3.0730     2.1942 H            1    LIG   0.0000
  33 H            5.1701     3.3411     2.5891 H            1    LIG   0.0000
@<TRIPOS>BOND
   1        1        2 1
   2        2        3 1
   3        3        4 2
   4        4        5 1
   5        5        6 2
   6        6        7 1
   7        7        8 2
   8        8        9 1
   9        9       10 1
  10       10       11 1
  11        9       12 1
  12       12       13 1
  13       13       14 1
  14        6       15 1
  15       15        3 1
  16        1       16 1
  17        1       17 1
  18        1       18 1
  19        2       19 1
  20        2       20 1
  21        4       21 1
  22        5       22 1
  23        7       23 1
  24       10       24 1
  25       10       25 1
  26       11       26 1
  27       11       27 1
  28       11       28 1
  29       12       29 1
  30       12       30 1
  31       13       31 1
  32       13       32 1
  33       14       33 1

@<TRIPOS>MOLECULE

  33   33
SMALL
USER_CHARGES
@<TRIPOS>ATOM
   1 C1           4.3025    -5.2406     0.8446 C.3          1    LIG   0.0000
   2 C2           4.1081    -4.0556    -0.0873 C.3          1    LIG   0.0000
   3 C3           3.0378    -3.1365     0.4782 C.2          1    LIG   0.0000
   4 C4           2.3403    -3.3116     1.6336 C.2          1    LIG   0.0000
   5 C5           1.3873    -2.3010     1.9400 C.2          1    LIG   0.0000
   6 C6           1.3443    -1.3156     1.0000 C.2          1    LIG   0.0000
   7 C7           0.4916    -0.1419     1.0000 C.2          1    LIG   0.0000
   8 N8           1.0000     1.0000     1.0000 N.2          1    LIG   0.0000
   9 N9           2.3700     1.0000     1.0000 N.pl3        1    LIG   0.0000
  10 C10          3.1050    -0.1025     1.6365 C.3          1    LIG   0.0000
  11 C11          4.2359     0.4630     2.4802 C.3          1    LIG   0.0000
  12 C12          3.1050     2.1025     0.3635 C.3          1    LIG   0.0000
  13 C13          2.1361     2.9692    -0.4243 C.3          1    LIG   0.0000
  14 O14          1.1542     3.4996     0.4537 O.3          1    LIG   0.0000
  15 S15          2.4787    -1.6837    -0.2149 S.3          1    LIG   0.0000
  16 H            5.0067    -5.8453     0.4725 H            1    LIG   0.0000
  17 H            4.5865    -4.9130     1.7456 H            1    LIG   0.0000
  18 H            3.4420    -5.7432     0.9286 H            1    LIG   0.0000
  19 H            4.9686    -3.5531    -0.1714 H            1    LIG   0.0000
  20 H            3.8241    -4.3832    -0.9884 H            1    LIG   0.0000
  21 H            2.4884    -4.1008     2.2295 H            1    LIG   0.0000
  22 H            0.8110    -2.3126     2.7572 H            1    LIG   0.0000
  23 H           -0.5029    -0.2465     1.0000 H            1    LIG   0.0000
  24 H            3.4830    -0.7022     0.9312 H            1    LIG   0.0000
  25 H            2.4830    -0.6248     2.2199 H            1    LIG   0.0000
  26 H            4.7359    -0.2870     2.9132 H            1    LIG   0.0000
  27 H            4.8579     0.9853     1.8968 H            1    LIG   0.0000
  28 H            3.8579     1.0626     3.1855 H            1    LIG   0.0000
  29 H            3.7965     1.7290    -0.2548 H            1    LIG   0.0000
  30 H            3.5509     2.6558     1.0670 H            1    LIG   0.0000
  31 H            2.6361     3.7192    -0.8573 H            1    LIG   0.0000
  32 H            1.6902     2.4158    -1.1278 H            1    LIG   0.0000
  33 H            0.5168     4.0698    -0.0645 H            1    LIG   0.0000
@<TRIPOS>BOND
   1        1        2 1
   2        2        3 1
   3        3        4 2
   4        4        5 1
   5        5        6 2
   6        6        7 1
   7        7        8 2
   8        8        9 1
   9        9       10 1
  10       10       11 1
  11        9       12 1
  12       12       13 1
  13       13       14 1
  14        6       15 1
  15       15        3 1
  16        1       16 1
  17        1       17 1
  18        1       18 1
  19        2       19 1
  20        2       20 1
  21        4       21 1
  22        5       22 1
  23        7       23 1
  24       10       24 1
  25       10       25 1
  26       11       26 1
  27       11       27 1
  28       11       28 1
  29       12       29 1
  30       12       30 1
  31       13       31 1
  32       13       32 1
  33       14       33 1

@<TRIPOS>MOLECULE

  33   33
SMALL
USER_CHARGES
@<TRIPOS>ATOM
   1 C1           4.3069    -5.2374     1.1523 C.3          1    LIG   0.0000
   2 C2           4.1110    -4.0536     2.0853 C.3          1    LIG   0.0000
   3 C3           3.0396    -3.1352     1.5205 C.2          1    LIG   0.0000
   4 C4           2.3423    -3.3101     0.3650 C.2          1    LIG   0.0000
   5 C5           1.3894    -2.2995     0.0585 C.2          1    LIG   0.0000
   6 C6           1.3443    -1.3156     1.0000 C.2          1    LIG   0.0000
   7 C7           0.4916    -0.1419     1.0000 C.2          1    LIG   0.0000
   8 N8           1.0000     1.0000     1.0000 N.2          1    LIG   0.0000
   9 N9           2.3700     1.0000     1.0000 N.pl3        1    LIG   0.0000
  10 C10          3.1050     2.1025     1.6365 C.3          1    LIG   0.0000
  11 C11          3.5738     3.0804     0.5715 C.3          1    LIG   0.0000
  12 C12          3.1050    -0.1025     0.3635 C.3          1    LIG   0.0000
  13 C13          4.2359     0.4630    -0.4802 C.3          1    LIG   0.0000
  14 O14          5.1192     1.2047     0.3482 O.3          1    LIG   0.0000
  15 S15          2.4787    -1.6837     2.2149 S.3          1    LIG   0.0000
  16 H            5.0117    -5.8417     1.5239 H            1    LIG   0.0000
  17 H            3.4470    -5.7409     1.0676 H            1    LIG   0.0000
  18 H            4.5907    -4.9086     0.2516 H            1    LIG   0.0000
  19 H            3.8271    -4.3824     2.9860 H            1    LIG   0.0000
  20 H            4.9708    -3.5501     2.1701 H            1    LIG   0.0000
  21 H            2.4904    -4.0994    -0.2309 H            1    LIG   0.0000
  22 H            0.8146    -2.3100    -0.7598 H            1    LIG   0.0000
  23 H           -0.5029    -0.2465     1.0000 H            1    LIG   0.0000
  24 H            3.8971     1.7368     2.1251 H            1    LIG   0.0000
  25 H            2.5044     2.5749     2.2816 H            1    LIG   0.0000
  26 H            4.0738     3.8304     1.0045 H            1    LIG   0.0000
  27 H            4.1744     2.6080    -0.0736 H            1    LIG   0.0000
  28 H            2.7817     3.4461     0.0829 H            1    LIG   0.0000
  29 H            2.4830    -0.6248    -0.2199 H            1    LIG   0.0000
  30 H            3.4830    -0.7022     1.0688 H            1    LIG   0.0000
  31 H            4.7359    -0.2870    -0.9132 H            1    LIG   0.0000
  32 H            3.8579     1.0626    -1.1855 H            1    LIG   0.0000
  33 H            5.8632     1.5767    -0.2068 H            1    LIG   0.0000
@<TRIPOS>BOND
   1        1        2 1
   2        2        3 1
   3        3        4 2
   4        4        5 1
   5        5        6 2
   6        6        7 1
   7        7        8 2
   8        8        9 1
   9        9       10 1
  10       10       11 1
  11        9       12 1
  12       12       13 1
  13       13       14 1
  14        6       15 1
  15       15        3 1
  16        1       16 1
  17        1       17 1
  18        1       18 1
  19        2       19 1
  20        2       20 1
  21        4       21 1
  22        5       22 1
  23        7       23 1
  24       10       24 1
  25       10       25 1
  26       11       26 1
  27       11       27 1
  28       11       28 1
  29       12       29 1
  30       12       30 1
  31       13       31 1
  32       13       32 1
  33       14       33 1

@<TRIPOS>MOLECULE

  33   33
SMALL
USER_CHARGES
@<TRIPOS>ATOM
   1 C1           4.6293    -3.4820     3.3949 C.3          1    LIG   0.0000
   2 C2           4.1110    -4.0536     2.0853 C.3          1    LIG   0.0000
   3 C3           3.0396    -3.1352     1.5205 C.2          1    LIG   0.0000
   4 C4           2.3423    -3.3101     0.3650 C.2          1    LIG   0.0000
   5 C5           1.3894    -2.2995     0.0585 C.2          1    LIG   0.0000
   6 C6           1.3443    -1.3156     1.0000 C.2          1    LIG   0.0000
   7 C7           0.4916    -0.1419     1.0000 C.2          1    LIG   0.0000
   8 N8           1.0000     1.0000     1.0000 N.2          1    LIG   0.0000
   9 N9           2.3700     1.0000     1.0000 N.pl3        1    LIG   0.0000
  10 C10          3.1050     2.1025     1.6365 C.3          1    LIG   0.0000
  11 C11          3.5738     1.6691     3.0159 C.3          1    LIG   0.0000
  12 C12          3.1050    -0.1025     0.3635 C.3          1    LIG   0.0000
  13 C13          4.2359     0.4630    -0.4802 C.3          1    LIG   0.0000
  14 O14          5.1192     1.2047     0.3482 O.3          1    LIG   0.0000
  15 S15          2.4787    -1.6837     2.2149 S.3          1    LIG   0.0000
  16 H            5.3341    -4.0862     3.7665 H            1    LIG   0.0000
  17 H            5.0192    -2.5757     3.2319 H            1    LIG   0.0000
  18 H            3.8755    -3.4080     4.0479 H            1    LIG   0.0000
  19 H            4.8647    -4.1276     1.4324 H            1    LIG   0.0000
  20 H            3.7210    -4.9599     2.2483 H            1    LIG   0.0000
  21 H            2.4904    -4.0994    -0.2309 H            1    LIG   0.0000
  22 H            0.8146    -2.3100    -0.7598 H            1    LIG   0.0000
  23 H           -0.5029    -0.2465     1.0000 H            1    LIG   0.0000
  24 H            2.5044     2.8974     1.7231 H            1    LIG   0.0000
  25 H            3.8971     2.3428     1.0755 H            1    LIG   0.0000
  26 H            4.0738     2.4191     3.4489 H            1    LIG   0.0000
  27 H            2.7817     1.4288     3.5770 H            1    LIG   0.0000
  28 H            4.1744     0.8742     2.9294 H            1    LIG   0.0000
  29 H            2.4830    -0.6248    -0.2199 H            1    LIG   0.0000
  30 H            3.4830    -0.7022     1.0688 H            1    LIG   0.0000
  31 H            4.7359    -0.2870    -0.9132 H            1    LIG   0.0000
  32 H            3.8579     1.0626    -1.1855 H            1    LIG   0.0000
  33 H            5.8632     1.5767    -0.2068 H            1    LIG   0.0000
@<TRIPOS>BOND
   1        1        2 1
   2        2        3 1
   3        3        4 2
   4        4        5 1
   5        5        6 2
   6        6        7 1
   7        7        8 2
   8        8        9 1
   9        9       10 1
  10       10       11 1
  11        9       12 1
  12       12       13 1
  13       13       14 1
  14        6       15 1
  15       15        3 1
  16        1       16 1
  17        1       17 1
  18        1       18 1
  19        2       19 1
  20        2       20 1
  21        4       21 1
  22        5       22 1
  23        7       23 1
  24       10       24 1
  25       10       25 1
  26       11       26 1
  27       11       27 1
  28       11       28 1
  29       12       29 1
  30       12       30 1
  31       13       31 1
  32       13       32 1
  33       14       33 1

@<TRIPOS>MOLECULE

  33   33
SMALL
USER_CHARGES
@<TRIPOS>ATOM
   1 C1           4.3069    -5.2374     1.1523 C.3          1    LIG   0.0000
   2 C2           4.1110    -4.0536     2.0853 C.3          1    LIG   0.0000
   3 C3           3.0396    -3.1352     1.5205 C.2          1    LIG   0.0000
   4 C4           2.3423    -3.3101     0.3650 C.2          1    LIG   0.0000
   5 C5           1.3894    -2.2995     0.0585 C.2          1    LIG   0.0000
   6 C6           1.3443    -1.3156     1.0000 C.2          1    LIG   0.0000
   7 C7           0.4916    -0.1419     1.0000 C.2          1    LIG   0.0000
   8 N8           1.0000     1.0000     1.0000 N.2          1    LIG   0.0000
   9 N9           2.3700     1.0000     1.0000 N.pl3        1    LIG   0.0000
  10 C10          3.1050     2.1025     1.6365 C.3          1    LIG   0.0000
  11 C11          3.1428     1.8846     3.1404 C.3          1    LIG   0.0000
  12 C12          3.1050    -0.1025     0.3635 C.3          1    LIG   0.0000
  13 C13          4.2359     0.4630    -0.4802 C.3          1    LIG   0.0000
  14 O14          5.1192     1.2047     0.3482 O.3          1    LIG   0.0000
  15 S15          2.4787    -1.6837     2.2149 S.3          1    LIG   0.0000
  16 H            5.0117    -5.8417     1.5239 H            1    LIG   0.0000
  17 H            3.4470    -5.7409     1.0676 H            1    LIG   0.0000
  18 H            4.5907    -4.9086     0.2516 H            1    LIG   0.0000
  19 H            3.8271    -4.3824     2.9860 H            1    LIG   0.0000
  20 H            4.9708    -3.5501     2.1701 H            1    LIG   0.0000
  21 H            2.4904    -4.0994    -0.2309 H            1    LIG   0.0000
  22 H            0.8146    -2.3100    -0.7598 H            1    LIG   0.0000
  23 H           -0.5029    -0.2465     1.0000 H            1    LIG   0.0000
  24 H            2.6462     2.9682     1.4366 H            1    LIG   0.0000
  25 H            4.0389     2.1301     1.2801 H            1    LIG   0.0000
  26 H            3.6428     2.6346     3.5734 H            1    LIG   0.0000
  27 H            2.2089     1.8570     3.4968 H            1    LIG   0.0000
  28 H            3.6016     1.0189     3.3403 H            1    LIG   0.0000
  29 H            2.4830    -0.6248    -0.2199 H            1    LIG   0.0000
  30 H            3.4830    -0.7022     1.0688 H            1    LIG   0.0000
  31 H            4.7359    -0.2870    -0.9132 H            1    LIG   0.0000
  32 H            3.8579     1.0626    -1.1855 H            1    LIG   0.0000
  33 H            5.8632     1.5767    -0.2068 H            1    LIG   0.0000
@<TRIPOS>BOND
   1        1        2 1
   2        2        3 1
   3        3        4 2
   4        4        5 1
   5        5        6 2
   6        6        7 1
   7        7        8 2
   8        8        9 1
   9        9       10 1
  10       10       11 1
  11        9       12 1
  12       12       13 1
  13       13       14 1
  14        6       15 1
  15       15        3 1
  16        1       16 1
  17        1       17 1
  18        1       18 1
  19        2       19 1
  20        2       20 1
  21        4       21 1
  22        5       22 1
  23        7       23 1
  24       10       24 1
  25       10       25 1
  26       11       26 1
  27       11       27 1
  28       11       28 1
  29       12       29 1
  30       12       30 1
  31       13       31 1
  32       13       32 1
  33       14       33 1

@<TRIPOS>MOLECULE

  33   33
SMALL
USER_CHARGES
@<TRIPOS>ATOM
   1 C1           4.6293    -3.4820     3.3949 C.3          1    LIG   0.0000
   2 C2           4.1110    -4.0536     2.0853 C.3          1    LIG   0.0000
   3 C3           3.0396    -3.1352     1.5205 C.2          1    LIG   0.0000
   4 C4           2.3423    -3.3101     0.3650 C.2          1    LIG   0.0000
   5 C5           1.3894    -2.2995     0.0585 C.2          1    LIG   0.0000
   6 C6           1.3443    -1.3156     1.0000 C.2          1    LIG   0.0000
   7 C7           0.4916    -0.1419     1.0000 C.2          1    LIG   0.0000
   8 N8           1.0000     1.0000     1.0000 N.2          1    LIG   0.0000
   9 N9           2.3700     1.0000     1.0000 N.pl3        1    LIG   0.0000
  10 C10          3.1050     2.1025     1.6365 C.3          1    LIG   0.0000
  11 C11          3.1428     3.2959     0.6959 C.3          1    LIG   0.0000
  12 C12          3.1050    -0.1025     0.3635 C.3          1    LIG   0.0000
  13 C13          4.2359     0.4630    -0.4802 C.3          1    LIG   0.0000
  14 O14          5.3333     0.7921     0.3587 O.3          1    LIG   0.0000
  15 S15          2.4787    -1.6837     2.2149 S.3          1    LIG   0.0000
  16 H            5.3341    -4.0862     3.7665 H            1    LIG   0.0000
  17 H            5.0192    -2.5757     3.2319 H            1    LIG   0.0000
  18 H            3.8755    -3.4080     4.0479 H            1    LIG   0.0000
  19 H            4.8647    -4.1276     1.4324 H            1    LIG   0.0000
  20 H            3.7210    -4.9599     2.2483 H            1    LIG   0.0000
  21 H            2.4904    -4.0994    -0.2309 H            1    LIG   0.0000
  22 H            0.8146    -2.3100    -0.7598 H            1    LIG   0.0000
  23 H           -0.5029    -0.2465     1.0000 H            1    LIG   0.0000
  24 H            4.0389     1.8076     1.8386 H            1    LIG   0.0000
  25 H            2.6462     2.3622     2.4863 H            1    LIG   0.0000
  26 H            3.6428     4.0459     1.1289 H            1    LIG   0.0000
  27 H            3.6016     3.0362    -0.1538 H            1    LIG   0.0000
  28 H            2.2089     3.5908     0.4938 H            1    LIG   0.0000
  29 H            2.4830    -0.6248    -0.2199 H            1    LIG   0.0000
  30 H            3.4830    -0.7022     1.0688 H            1    LIG   0.0000
  31 H            4.5232    -0.2191    -1.1527 H            1    LIG   0.0000
  32 H            3.9198     1.2852    -0.9534 H            1    LIG   0.0000
  33 H            6.0773     1.1641    -0.1963 H            1    LIG   0.0000
@<TRIPOS>BOND
   1        1        2 1
   2        2        3 1
   3        3        4 2
   4        4        5 1
   5        5        6 2
   6        6        7 1
   7        7        8 2
   8        8        9 1
   9        9       10 1
  10       10       11 1
  11        9       12 1
  12       12       13 1
  13       13       14 1
  14        6       15 1
  15       15        3 1
  16        1       16 1
  17        1       17 1
  18        1       18 1
  19        2       19 1
  20        2       20 1
  21        4       21 1
  22        5       22 1
  23        7       23 1
  24       10       24 1
  25       10       25 1
  26       11       26 1
  27       11       27 1
  28       11       28 1
  29       12       29 1
  30       12       30 1
  31       13       31 1
  32       13       32 1
  33       14       33 1

@<TRIPOS>MOLECULE

  33   33
SMALL
USER_CHARGES
@<TRIPOS>ATOM
   1 C1           4.3025    -5.2406     0.8446 C.3          1    LIG   0.0000
   2 C2           4.1081    -4.0556    -0.0873 C.3          1    LIG   0.0000
   3 C3           3.0378    -3.1365     0.4782 C.2          1    LIG   0.0000
   4 C4           2.3403    -3.3116     1.6336 C.2          1    LIG   0.0000
   5 C5           1.3873    -2.3010     1.9400 C.2          1    LIG   0.0000
   6 C6           1.3443    -1.3156     1.0000 C.2          1    LIG   0.0000
   7 C7           0.4916    -0.1419     1.0000 C.2          1    LIG   0.0000
   8 N8           1.0000     1.0000     1.0000 N.2          1    LIG   0.0000
   9 N9           2.3700     1.0000     1.0000 N.pl3        1    LIG   0.0000
  10 C10          3.1050     2.1025     0.3635 C.3          1    LIG   0.0000
  11 C11          3.5738     1.6691    -1.0159 C.3          1    LIG   0.0000
  12 C12          3.1050    -0.1025     1.6365 C.3          1    LIG   0.0000
  13 C13          4.2359     0.4630     2.4802 C.3          1    LIG   0.0000
  14 O14          3.6992     1.3145     3.4817 O.3          1    LIG   0.0000
  15 S15          2.4787    -1.6837    -0.2149 S.3          1    LIG   0.0000
  16 H            5.0067    -5.8453     0.4725 H            1    LIG   0.0000
  17 H            4.5865    -4.9130     1.7456 H            1    LIG   0.0000
  18 H            3.4420    -5.7432     0.9286 H            1    LIG   0.0000
  19 H            4.9686    -3.5531    -0.1714 H            1    LIG   0.0000
  20 H            3.8241    -4.3832    -0.9884 H            1    LIG   0.0000
  21 H            2.4884    -4.1008     2.2295 H            1    LIG   0.0000
  22 H            0.8110    -2.3126     2.7572 H            1    LIG   0.0000
  23 H           -0.5029    -0.2465     1.0000 H            1    LIG   0.0000
  24 H            3.8971     2.3428     0.9245 H            1    LIG   0.0000
  25 H            2.5044     2.8974     0.2769 H            1    LIG   0.0000
  26 H            4.0738     2.4191    -1.4489 H            1    LIG   0.0000
  27 H            4.1744     0.8742    -0.9294 H            1    LIG   0.0000
  28 H            2.7817     1.4288    -1.5770 H            1    LIG   0.0000
  29 H            3.4830    -0.7022     0.9312 H            1    LIG   0.0000
  30 H            2.4830    -0.6248     2.2199 H            1    LIG   0.0000
  31 H            4.7359    -0.2870     2.9132 H            1    LIG   0.0000
  32 H            4.8579     0.9853     1.8968 H            1    LIG   0.0000
  33 H            4.4432     1.6865     4.0368 H            1    LIG   0.0000
@<TRIPOS>BOND
   1        1        2 1
   2        2        3 1
   3        3        4 2
   4        4        5 1
   5        5        6 2
   6        6        7 1
   7        7        8 2
   8        8        9 1
   9        9       10 1
  10       10       11 1
  11        9       12 1
  12       12       13 1
  13       13       14 1
  14        6       15 1
  15       15        3 1
  16        1       16 1
  17        1       17 1
  18        1       18 1
  19        2       19 1
  20        2       20 1
  21        4       21 1
  22        5       22 1
  23        7       23 1
  24       10       24 1
  25       10       25 1
  26       11       26 1
  27       11       27 1
  28       11       28 1
  29       12       29 1
  30       12       30 1
  31       13       31 1
  32       13       32 1
  33       14       33 1

@<TRIPOS>MOLECULE

  33   33
SMALL
USER_CHARGES
@<TRIPOS>ATOM
   1 C1           4.6274    -3.4834    -1.3962 C.3          1    LIG   0.0000
   2 C2           4.1081    -4.0556    -0.0873 C.3          1    LIG   0.0000
   3 C3           3.0378    -3.1365     0.4782 C.2          1    LIG   0.0000
   4 C4           2.3403    -3.3116     1.6336 C.2          1    LIG   0.0000
   5 C5           1.3873    -2.3010     1.9400 C.2          1    LIG   0.0000
   6 C6           1.3443    -1.3156     1.0000 C.2          1    LIG   0.0000
   7 C7           0.4916    -0.1419     1.0000 C.2          1    LIG   0.0000
   8 N8           1.0000     1.0000     1.0000 N.2          1    LIG   0.0000
   9 N9           2.3700     1.0000     1.0000 N.pl3        1    LIG   0.0000
  10 C10          3.1050     2.1025     0.3635 C.3          1    LIG   0.0000
  11 C11          3.9789     1.5517    -0.7516 C.3          1    LIG   0.0000
  12 C12          3.1050    -0.1025     1.6365 C.3          1    LIG   0.0000
  13 C13          4.2359     0.4630     2.4802 C.3          1    LIG   0.0000
  14 O14          3.6992     1.3145     3.4817 O.3          1    LIG   0.0000
  15 S15          2.4787    -1.6837    -0.2149 S.3          1    LIG   0.0000
  16 H            5.3317    -4.0880    -1.7683 H            1    LIG   0.0000
  17 H            3.8739    -3.4079    -2.0493 H            1    LIG   0.0000
  18 H            5.0184    -2.5777    -1.2322 H            1    LIG   0.0000
  19 H            3.7172    -4.9613    -0.2513 H            1    LIG   0.0000
  20 H            4.8617    -4.1311     0.5657 H            1    LIG   0.0000
  21 H            2.4884    -4.1008     2.2295 H            1    LIG   0.0000
  22 H            0.8110    -2.3126     2.7572 H            1    LIG   0.0000
  23 H           -0.5029    -0.2465     1.0000 H            1    LIG   0.0000
  24 H            3.6799     2.5566     1.0441 H            1    LIG   0.0000
  25 H            2.4552     2.7607    -0.0166 H            1    LIG   0.0000
  26 H            4.4789     2.3017    -1.1846 H            1    LIG   0.0000
  27 H            4.6287     0.8934    -0.3716 H            1    LIG   0.0000
  28 H            3.4040     1.0976    -1.4322 H            1    LIG   0.0000
  29 H            3.4830    -0.7022     0.9312 H            1    LIG   0.0000
  30 H            2.4830    -0.6248     2.2199 H            1    LIG   0.0000
  31 H            4.7359    -0.2870     2.9132 H            1    LIG   0.0000
  32 H            4.8579     0.9853     1.8968 H            1    LIG   0.0000
  33 H            4.4432     1.6865     4.0368 H            1    LIG   0.0000
@<TRIPOS>BOND
   1        1        2 1
   2        2        3 1
   3        3        4 2
   4        4        5 1
   5        5        6 2
   6        6        7 1
   7        7        8 2
   8        8        9 1
   9        9       10 1
  10       10       11 1
  11        9       12 1
  12       12       13 1
  13       13       14 1
  14        6       15 1
  15       15        3 1
  16        1       16 1
  17        1       17 1
  18        1       18 1
  19        2       19 1
  20        2       20 1
  21        4       21 1
  22        5       22 1
  23        7       23 1
  24       10       24 1
  25       10       25 1
  26       11       26 1
  27       11       27 1
  28       11       28 1
  29       12       29 1
  30       12       30 1
  31       13       31 1
  32       13       32 1
  33       14       33 1

@<TRIPOS>MOLECULE

  33   33
SMALL
USER_CHARGES
@<TRIPOS>ATOM
   1 C1           3.9687    -5.4368     0.5318 C.3          1    LIG   0.0000
   2 C2           4.1081    -4.0556    -0.0873 C.3          1    LIG   0.0000
   3 C3           3.0378    -3.1365     0.4782 C.2          1    LIG   0.0000
   4 C4           2.3403    -3.3116     1.6336 C.2          1    LIG   0.0000
   5 C5           1.3873    -2.3010     1.9400 C.2          1    LIG   0.0000
   6 C6           1.3443    -1.3156     1.0000 C.2          1    LIG   0.0000
   7 C7           0.4916    -0.1419     1.0000 C.2          1    LIG   0.0000
   8 N8           1.0000     1.0000     1.0000 N.2          1    LIG   0.0000
   9 N9           2.3700     1.0000     1.0000 N.pl3        1    LIG   0.0000
  10 C10          3.1050     2.1025     0.3635 C.3          1    LIG   0.0000
  11 C11          3.5738     3.0804     1.4285 C.3          1    LIG   0.0000
  12 C12          3.1050    -0.1025     1.6365 C.3          1    LIG   0.0000
  13 C13          4.2359     0.4630     2.4802 C.3          1    LIG   0.0000
  14 O14          3.6992     1.3145     3.4817 O.3          1    LIG   0.0000
  15 S15          2.4787    -1.6837    -0.2149 S.3          1    LIG   0.0000
  16 H            4.6730    -6.0415     0.1597 H            1    LIG   0.0000
  17 H            4.0769    -5.3700     1.5236 H            1    LIG   0.0000
  18 H            3.0647    -5.8077     0.3192 H            1    LIG   0.0000
  19 H            5.0122    -3.6848     0.1252 H            1    LIG   0.0000
  20 H            4.0000    -4.1225    -1.0792 H            1    LIG   0.0000
  21 H            2.4884    -4.1008     2.2295 H            1    LIG   0.0000
  22 H            0.8110    -2.3126     2.7572 H            1    LIG   0.0000
  23 H           -0.5029    -0.2465     1.0000 H            1    LIG   0.0000
  24 H            2.5044     2.5749    -0.2816 H            1    LIG   0.0000
  25 H            3.8971     1.7368    -0.1251 H            1    LIG   0.0000
  26 H            4.0738     3.8304     0.9955 H            1    LIG   0.0000
  27 H            2.7817     3.4461     1.9171 H            1    LIG   0.0000
  28 H            4.1744     2.6080     2.0736 H            1    LIG   0.0000
  29 H            3.4830    -0.7022     0.9312 H            1    LIG   0.0000
  30 H            2.4830    -0.6248     2.2199 H            1    LIG   0.0000
  31 H            4.7359    -0.2870     2.9132 H            1    LIG   0.0000
  32 H            4.8579     0.9853     1.8968 H            1    LIG   0.0000
  33 H            4.4432     1.6865     4.0368 H            1    LIG   0.0000
@<TRIPOS>BOND
   1        1        2 1
   2        2        3 1
   3        3        4 2
   4        4        5 1
   5        5        6 2
   6        6        7 1
   7        7        8 2
   8        8        9 1
   9        9       10 1
  10       10       11 1
  11        9       12 1
  12       12       13 1
  13       13       14 1
  14        6       15 1
  15       15        3 1
  16        1       16 1
  17        1       17 1
  18        1       18 1
  19        2       19 1
  20        2       20 1
  21        4       21 1
  22        5       22 1
  23        7       23 1
  24       10       24 1
  25       10       25 1
  26       11       26 1
  27       11       27 1
  28       11       28 1
  29       12       29 1
  30       12       30 1
  31       13       31 1
  32       13       32 1
  33       14       33 1

@<TRIPOS>MOLECULE

  33   33
SMALL
USER_CHARGES
@<TRIPOS>ATOM
   1 C1           4.9612    -3.2872    -1.0834 C.3          1    LIG   0.0000
   2 C2           4.1081    -4.0556    -0.0873 C.3          1    LIG   0.0000
   3 C3           3.0378    -3.1365     0.4782 C.2          1    LIG   0.0000
   4 C4           2.3403    -3.3116     1.6336 C.2          1    LIG   0.0000
   5 C5           1.3873    -2.3010     1.9400 C.2          1    LIG   0.0000
   6 C6           1.3443    -1.3156     1.0000 C.2          1    LIG   0.0000
   7 C7           0.4916    -0.1419     1.0000 C.2          1    LIG   0.0000
   8 N8           1.0000     1.0000     1.0000 N.2          1    LIG   0.0000
   9 N9           2.3700     1.0000     1.0000 N.pl3        1    LIG   0.0000
  10 C10          3.1050     2.1025     0.3635 C.3          1    LIG   0.0000
  11 C11          2.2835     3.3782     0.4543 C.3          1    LIG   0.0000
  12 C12          3.1050    -0.1025     1.6365 C.3          1    LIG   0.0000
  13 C13          4.2359     0.4630     2.4802 C.3          1    LIG   0.0000
  14 O14          3.6992     1.3145     3.4817 O.3          1    LIG   0.0000
  15 S15          2.4787    -1.6837    -0.2149 S.3          1    LIG   0.0000
  16 H            5.6654    -3.8918    -1.4555 H            1    LIG   0.0000
  17 H            4.3836    -2.9509    -1.8273 H            1    LIG   0.0000
  18 H            5.3957    -2.5132    -0.6229 H            1    LIG   0.0000
  19 H            3.6736    -4.8296    -0.5479 H            1    LIG   0.0000
  20 H            4.6857    -4.3919     0.6565 H            1    LIG   0.0000
  21 H            2.4884    -4.1008     2.2295 H            1    LIG   0.0000
  22 H            0.8110    -2.3126     2.7572 H            1    LIG   0.0000
  23 H           -0.5029    -0.2465     1.0000 H            1    LIG   0.0000
  24 H            3.2717     1.8811    -0.5974 H            1    LIG   0.0000
  25 H            3.9788     2.2346     0.8315 H            1    LIG   0.0000
  26 H            2.7835     4.1282     0.0213 H            1    LIG   0.0000
  27 H            1.4098     3.2460    -0.0137 H            1    LIG   0.0000
  28 H            2.1169     3.5996     1.4152 H            1    LIG   0.0000
  29 H            3.4830    -0.7022     0.9312 H            1    LIG   0.0000
  30 H            2.4830    -0.6248     2.2199 H            1    LIG   0.0000
  31 H            4.7359    -0.2870     2.9132 H            1    LIG   0.0000
  32 H            4.8579     0.9853     1.8968 H            1    LIG   0.0000
  33 H            4.4432     1.6865     4.0368 H            1    LIG   0.0000
@<TRIPOS>BOND
   1        1        2 1
   2        2        3 1
   3        3        4 2
   4        4        5 1
   5        5        6 2
   6        6        7 1
   7        7        8 2
   8        8        9 1
   9        9       10 1
  10       10       11 1
  11        9       12 1
  12       12       13 1
  13       13       14 1
  14        6       15 1
  15       15        3 1
  16        1       16 1
  17        1       17 1
  18        1       18 1
  19        2       19 1
  20        2       20 1
  21        4       21 1
  22        5       22 1
  23        7       23 1
  24       10       24 1
  25       10       25 1
  26       11       26 1
  27       11       27 1
  28       11       28 1
  29       12       29 1
  30       12       30 1
  31       13       31 1
  32       13       32 1
  33       14       33 1

