@<TRIPOS>MOLECULE
*****
 33 33 0 0 0
SMALL
USER_CHARGES

@<TRIPOS>ATOM
      1 C1          4.9612   -3.2872   -1.0834 C.3     1  LIG1        0.0000
      2 C2          4.1081   -4.0556   -0.0873 C.3     1  LIG1        0.0000
      3 C3          3.0378   -3.1365    0.4782 C.2     1  LIG1        0.0000
      4 C4          2.3403   -3.3116    1.6336 C.2     1  LIG1        0.0000
      5 C5          1.3873   -2.3010    1.9400 C.2     1  LIG1        0.0000
      6 C6          1.3443   -1.3156    1.0000 C.2     1  LIG1        0.0000
      7 C7          0.4916   -0.1419    1.0000 C.2     1  LIG1        0.0000
      8 N8          1.0000    1.0000    1.0000 N.2     1  LIG1        0.0000
      9 N9          2.3700    1.0000    1.0000 N.pl3   1  LIG1        0.0000
     10 C10         3.1050    2.1025    0.3635 C.3     1  LIG1        0.0000
     11 C11         2.2835    3.3782    0.4543 C.3     1  LIG1        0.0000
     12 C12         3.1050   -0.1025    1.6365 C.3     1  LIG1        0.0000
     13 C13         4.2359    0.4630    2.4802 C.3     1  LIG1        0.0000
     14 O14         3.6992    1.3145    3.4817 O.3     1  LIG1        0.0000
     15 S15         2.4787   -1.6837   -0.2149 S.3     1  LIG1        0.0000
     16 H           5.6654   -3.8918   -1.4555 H       1  LIG1        0.0000
     17 H           4.3836   -2.9509   -1.8273 H       1  LIG1        0.0000
     18 H           5.3957   -2.5132   -0.6229 H       1  LIG1        0.0000
     19 H           3.6736   -4.8296   -0.5479 H       1  LIG1        0.0000
     20 H           4.6857   -4.3919    0.6565 H       1  LIG1        0.0000
     21 H           2.4884   -4.1008    2.2295 H       1  LIG1        0.0000
     22 H           0.8110   -2.3126    2.7572 H       1  LIG1        0.0000
     23 H          -0.5029   -0.2465    1.0000 H       1  LIG1        0.0000
     24 H           3.2717    1.8811   -0.5974 H       1  LIG1        0.0000
     25 H           3.9788    2.2346    0.8315 H       1  LIG1        0.0000
     26 H           2.7835    4.1282    0.0213 H       1  LIG1        0.0000
     27 H           1.4098    3.2460   -0.0137 H       1  LIG1        0.0000
     28 H           2.1169    3.5996    1.4152 H       1  LIG1        0.0000
     29 H           3.4830   -0.7022    0.9312 H       1  LIG1        0.0000
     30 H           2.4830   -0.6248    2.2199 H       1  LIG1        0.0000
     31 H           4.7359   -0.2870    2.9132 H       1  LIG1        0.0000
     32 H           4.8579    0.9853    1.8968 H       1  LIG1        0.0000
     33 H           4.4432    1.6865    4.0368 H       1  LIG1        0.0000
@<TRIPOS>BOND
     1     1     2    1
     2     2     3    1
     3     3     4    2
     4     4     5    1
     5     5     6    2
     6     6     7    1
     7     7     8    2
     8     8     9    1
     9     9    10    1
    10    10    11    1
    11     9    12    1
    12    12    13    1
    13    13    14    1
    14     6    15    1
    15    15     3    1
    16     1    16    1
    17     1    17    1
    18     1    18    1
    19     2    19    1
    20     2    20    1
    21     4    21    1
    22     5    22    1
    23     7    23    1
    24    10    24    1
    25    10    25    1
    26    11    26    1
    27    11    27    1
    28    11    28    1
    29    12    29    1
    30    12    30    1
    31    13    31    1
    32    13    32    1
    33    14    33    1
