@<TRIPOS>MOLECULE
*****
 33 33 0 0 0
SMALL
USER_CHARGES

@<TRIPOS>ATOM
      1 C1          4.3069   -5.2374    1.1523 C.3     1  LIG1        0.0000
      2 C2          4.1110   -4.0536    2.0853 C.3     1  LIG1        0.0000
      3 C3          3.0396   -3.1352    1.5205 C.2     1  LIG1        0.0000
      4 C4          2.3423   -3.3101    0.3650 C.2     1  LIG1        0.0000
      5 C5          1.3894   -2.2995    0.0585 C.2     1  LIG1        0.0000
      6 C6          1.3443   -1.3156    1.0000 C.2     1  LIG1        0.0000
      7 C7          0.4916   -0.1419    1.0000 C.2     1  LIG1        0.0000
      8 N8          1.0000    1.0000    1.0000 N.2     1  LIG1        0.0000
      9 N9          2.3700    1.0000    1.0000 N.pl3   1  LIG1        0.0000
     10 C10         3.1050    2.1025    1.6365 C.3     1  LIG1        0.0000
     11 C11         3.5738    3.0804    0.5715 C.3     1  LIG1        0.0000
     12 C12         3.1050   -0.1025    0.3635 C.3     1  LIG1        0.0000
     13 C13         4.2359    0.4630   -0.4802 C.3     1  LIG1        0.0000
     14 O14         5.1192    1.2047    0.3482 O.3     1  LIG1        0.0000
     15 S15         2.4787   -1.6837    2.2149 S.3     1  LIG1        0.0000
     16 H           5.0117   -5.8417    1.5239 H       1  LIG1        0.0000
     17 H           3.4470   -5.7409    1.0676 H       1  LIG1        0.0000
     18 H           4.5907   -4.9086    0.2516 H       1  LIG1        0.0000
     19 H           3.8271   -4.3824    2.9860 H       1  LIG1        0.0000
     20 H           4.9708   -3.5501    2.1701 H       1  LIG1        0.0000
     21 H           2.4904   -4.0994   -0.2309 H       1  LIG1        0.0000
     22 H           0.8146   -2.3100   -0.7598 H       1  LIG1        0.0000
     23 H          -0.5029   -0.2465    1.0000 H       1  LIG1        0.0000
     24 H           3.8971    1.7368    2.1251 H       1  LIG1        0.0000
     25 H           2.5044    2.5749    2.2816 H       1  LIG1        0.0000
     26 H           4.0738    3.8304    1.0045 H       1  LIG1        0.0000
     27 H           4.1744    2.6080   -0.0736 H       1  LIG1        0.0000
     28 H           2.7817    3.4461    0.0829 H       1  LIG1        0.0000
     29 H           2.4830   -0.6248   -0.2199 H       1  LIG1        0.0000
     30 H           3.4830   -0.7022    1.0688 H       1  LIG1        0.0000
     31 H           4.7359   -0.2870   -0.9132 H       1  LIG1        0.0000
     32 H           3.8579    1.0626   -1.1855 H       1  LIG1        0.0000
     33 H           5.8632    1.5767   -0.2068 H       1  LIG1        0.0000
@<TRIPOS>BOND
     1     1     2    1
     2     2     3    1
     3     3     4    2
     4     4     5    1
     5     5     6    2
     6     6     7    1
     7     7     8    2
     8     8     9    1
     9     9    10    1
    10    10    11    1
    11     9    12    1
    12    12    13    1
    13    13    14    1
    14     6    15    1
    15    15     3    1
    16     1    16    1
    17     1    17    1
    18     1    18    1
    19     2    19    1
    20     2    20    1
    21     4    21    1
    22     5    22    1
    23     7    23    1
    24    10    24    1
    25    10    25    1
    26    11    26    1
    27    11    27    1
    28    11    28    1
    29    12    29    1
    30    12    30    1
    31    13    31    1
    32    13    32    1
    33    14    33    1
