@<TRIPOS>MOLECULE

  60   65
SMALL
USER_CHARGES
@<TRIPOS>ATOM
   1 C1          -5.0626     3.5082    -5.2730 C.3          1    LIG   0.0000
   2 O2          -4.6091     3.7473    -3.9488 O.3          1    LIG   0.0000
   3 C3          -4.0823     2.6792    -3.3131 C.ar         1    LIG   0.0000
   4 C4          -4.0173     1.4541    -3.9692 C.ar         1    LIG   0.0000
   5 C5          -3.4728     0.3606    -3.3043 C.ar         1    LIG   0.0000
   6 C6          -2.9972     0.4823    -2.0030 C.ar         1    LIG   0.0000
   7 C7          -3.0719     1.7167    -1.3662 C.ar         1    LIG   0.0000
   8 C8          -2.5554     1.8599     0.0562 C.3          1    LIG   0.0000
   9 N9          -1.1314     2.2349     0.0259 N.pl3        1    LIG   0.0000
  10 C10         -0.6583     3.5101     0.0124 C.2          1    LIG   0.0000
  11 N11         -1.3547     4.5710     0.0182 N.2          1    LIG   0.0000
  12 C12         -0.6144     5.7236     0.0010 C.2          1    LIG   0.0000
  13 O13         -0.3065     6.2234    -1.0456 O.2          1    LIG   0.0000
  14 C14         -0.2026     6.3400     1.2484 C.2          1    LIG   0.0000
  15 N15         -1.0211     6.7987     2.2337 N.2          1    LIG   0.0000
  16 N16         -0.2966     7.2658     3.1586 N.2          1    LIG   0.0000
  17 N17          0.9790     7.1641     2.8777 N.pl3        1    LIG   0.0000
  18 C18          2.0410     7.5873     3.6858 C.ar         1    LIG   0.0000
  19 C19          3.1851     6.8022     3.7828 C.ar         1    LIG   0.0000
  20 C20          4.2346     7.2321     4.5881 C.ar         1    LIG   0.0000
  21 C21          4.1562     8.4288     5.2932 C.ar         1    LIG   0.0000
  22 N22          5.1654     8.8480     6.0709 N.ar         1    LIG   0.0000
  23 C23          5.0949    10.0025     6.7505 C.ar         1    LIG   0.0000
  24 C24          3.9642    10.8087     6.6714 C.ar         1    LIG   0.0000
  25 C25          2.9029    10.3962     5.8732 C.ar         1    LIG   0.0000
  26 C26          2.9999     9.1953     5.1774 C.ar         1    LIG   0.0000
  27 C27          1.9365     8.7885     4.3791 C.ar         1    LIG   0.0000
  28 C28          1.0714     6.5690     1.6577 C.2          1    LIG   0.0000
  29 C29          2.3486     6.2345     0.9033 C.3          1    LIG   0.0000
  30 N30          0.7004     3.4417    -0.0139 N.pl3        1    LIG   0.0000
  31 C31          1.0674     2.1259    -0.0101 C.ar         1    LIG   0.0000
  32 C32          2.2935     1.4674    -0.0246 C.ar         1    LIG   0.0000
  33 C33          2.3784     0.0788    -0.0153 C.ar         1    LIG   0.0000
  34 C34          1.2095    -0.6754     0.0069 C.ar         1    LIG   0.0000
  35 C35         -0.0153    -0.0174     0.0218 C.ar         1    LIG   0.0000
  36 C36         -0.0774     1.3718     0.0148 C.ar         1    LIG   0.0000
  37 C37         -3.6129     2.8234    -2.0119 C.ar         1    LIG   0.0000
  38 H            1.3247     4.2227    -0.0329 H            1    LIG   0.0000
  39 H           -5.4330     4.3543    -5.6563 H            1    LIG   0.0000
  40 H           -4.2979     3.1941    -5.8357 H            1    LIG   0.0000
  41 H           -5.7763     2.8079    -5.2596 H            1    LIG   0.0000
  42 H           -4.3571     1.3611    -4.9051 H            1    LIG   0.0000
  43 H           -3.4227    -0.5242    -3.7676 H            1    LIG   0.0000
  44 H           -2.6063    -0.3079    -1.5310 H            1    LIG   0.0000
  45 H           -3.0769     2.5692     0.5304 H            1    LIG   0.0000
  46 H           -2.6608     0.9901     0.5382 H            1    LIG   0.0000
  47 H            3.2522     5.9402     3.2803 H            1    LIG   0.0000
  48 H            5.0594     6.6715     4.6614 H            1    LIG   0.0000
  49 H            5.8651    10.2872     7.3213 H            1    LIG   0.0000
  50 H            3.9155    11.6689     7.1789 H            1    LIG   0.0000
  51 H            2.0782    10.9570     5.8001 H            1    LIG   0.0000
  52 H            1.1119     9.3493     4.3049 H            1    LIG   0.0000
  53 H            2.1174     5.8014     0.0321 H            1    LIG   0.0000
  54 H            2.8641     7.0741     0.7318 H            1    LIG   0.0000
  55 H            2.9042     5.6080     1.4499 H            1    LIG   0.0000
  56 H            3.1355     2.0066    -0.0421 H            1    LIG   0.0000
  57 H            3.2707    -0.3726    -0.0245 H            1    LIG   0.0000
  58 H            1.2496    -1.6746     0.0120 H            1    LIG   0.0000
  59 H           -0.8618    -0.5495     0.0378 H            1    LIG   0.0000
  60 H           -3.6636     3.7081    -1.5484 H            1    LIG   0.0000
@<TRIPOS>BOND
   1        1        2 1
   2        2        3 1
   3        3        4 ar
   4        4        5 ar
   5        5        6 ar
   6        6        7 ar
   7        7        8 1
   8        8        9 1
   9        9       10 1
  10       10       11 2
  11       11       12 1
  12       12       13 2
  13       12       14 1
  14       14       15 1
  15       15       16 2
  16       16       17 1
  17       17       18 1
  18       18       19 ar
  19       19       20 ar
  20       20       21 ar
  21       21       22 ar
  22       22       23 ar
  23       23       24 ar
  24       24       25 ar
  25       25       26 ar
  26       26       21 ar
  27       26       27 ar
  28       27       18 ar
  29       17       28 1
  30       28       14 2
  31       28       29 1
  32       10       30 1
  33       30       31 1
  34       31       32 ar
  35       32       33 ar
  36       33       34 ar
  37       34       35 ar
  38       35       36 ar
  39       36       31 ar
  40       36        9 1
  41        7       37 ar
  42       37        3 ar
  43       30       38 1
  44        1       39 1
  45        1       40 1
  46        1       41 1
  47        4       42 1
  48        5       43 1
  49        6       44 1
  50        8       45 1
  51        8       46 1
  52       19       47 1
  53       20       48 1
  54       23       49 1
  55       24       50 1
  56       25       51 1
  57       27       52 1
  58       29       53 1
  59       29       54 1
  60       29       55 1
  61       32       56 1
  62       33       57 1
  63       34       58 1
  64       35       59 1
  65       37       60 1

@<TRIPOS>MOLECULE

  60   65
SMALL
USER_CHARGES
@<TRIPOS>ATOM
   1 C1          -5.0626     3.5082    -5.2730 C.3          1    LIG   0.0000
   2 O2          -4.6091     3.7473    -3.9488 O.3          1    LIG   0.0000
   3 C3          -4.0823     2.6792    -3.3131 C.ar         1    LIG   0.0000
   4 C4          -4.0173     1.4541    -3.9692 C.ar         1    LIG   0.0000
   5 C5          -3.4728     0.3606    -3.3043 C.ar         1    LIG   0.0000
   6 C6          -2.9972     0.4823    -2.0030 C.ar         1    LIG   0.0000
   7 C7          -3.0719     1.7167    -1.3662 C.ar         1    LIG   0.0000
   8 C8          -2.5554     1.8599     0.0562 C.3          1    LIG   0.0000
   9 N9          -1.1314     2.2349     0.0259 N.pl3        1    LIG   0.0000
  10 C10         -0.6583     3.5101     0.0124 C.2          1    LIG   0.0000
  11 N11         -1.3547     4.5710     0.0182 N.2          1    LIG   0.0000
  12 C12         -0.6144     5.7236     0.0010 C.2          1    LIG   0.0000
  13 O13         -0.2738     6.2334     1.0326 O.2          1    LIG   0.0000
  14 C14         -0.2421     6.3280    -1.2645 C.2          1    LIG   0.0000
  15 N15          0.5021     5.7536    -2.2481 N.2          1    LIG   0.0000
  16 N16          0.6128     6.5870    -3.1923 N.2          1    LIG   0.0000
  17 N17         -0.0065     7.7106    -2.9267 N.pl3        1    LIG   0.0000
  18 C18         -0.0745     8.8351    -3.7579 C.ar         1    LIG   0.0000
  19 C19         -1.2656     9.5469    -3.8538 C.ar         1    LIG   0.0000
  20 C20         -1.3223    10.6628    -4.6821 C.ar         1    LIG   0.0000
  21 C21         -0.2111    11.0742    -5.4112 C.ar         1    LIG   0.0000
  22 N22         -0.2603    12.1497    -6.2112 N.ar         1    LIG   0.0000
  23 C23          0.8095    12.5512    -6.9140 C.ar         1    LIG   0.0000
  24 C24          2.0140    11.8599    -6.8365 C.ar         1    LIG   0.0000
  25 C25          2.0913    10.7403    -6.0156 C.ar         1    LIG   0.0000
  26 C26          0.9684    10.3439    -5.2960 C.ar         1    LIG   0.0000
  27 C27          1.0518     9.2248    -4.4749 C.ar         1    LIG   0.0000
  28 C28         -0.5695     7.5729    -1.6958 C.2          1    LIG   0.0000
  29 C29         -1.3948     8.6111    -0.9519 C.3          1    LIG   0.0000
  30 N30          0.7004     3.4417    -0.0139 N.pl3        1    LIG   0.0000
  31 C31          1.0674     2.1259    -0.0101 C.ar         1    LIG   0.0000
  32 C32          2.2935     1.4674    -0.0246 C.ar         1    LIG   0.0000
  33 C33          2.3784     0.0788    -0.0153 C.ar         1    LIG   0.0000
  34 C34          1.2095    -0.6754     0.0069 C.ar         1    LIG   0.0000
  35 C35         -0.0153    -0.0174     0.0218 C.ar         1    LIG   0.0000
  36 C36         -0.0774     1.3718     0.0148 C.ar         1    LIG   0.0000
  37 C37         -3.6129     2.8234    -2.0119 C.ar         1    LIG   0.0000
  38 H            1.3247     4.2227    -0.0329 H            1    LIG   0.0000
  39 H           -5.4330     4.3543    -5.6563 H            1    LIG   0.0000
  40 H           -4.2979     3.1941    -5.8357 H            1    LIG   0.0000
  41 H           -5.7763     2.8079    -5.2596 H            1    LIG   0.0000
  42 H           -4.3571     1.3611    -4.9051 H            1    LIG   0.0000
  43 H           -3.4227    -0.5242    -3.7676 H            1    LIG   0.0000
  44 H           -2.6063    -0.3079    -1.5310 H            1    LIG   0.0000
  45 H           -3.0769     2.5692     0.5304 H            1    LIG   0.0000
  46 H           -2.6608     0.9901     0.5382 H            1    LIG   0.0000
  47 H           -2.0705     9.2602    -3.3342 H            1    LIG   0.0000
  48 H           -2.1762    11.1782    -4.7548 H            1    LIG   0.0000
  49 H            0.7402    13.3577    -7.5010 H            1    LIG   0.0000
  50 H            2.8096    12.1625    -7.3614 H            1    LIG   0.0000
  51 H            2.9453    10.2251    -5.9431 H            1    LIG   0.0000
  52 H            1.9057     8.7097    -4.4013 H            1    LIG   0.0000
  53 H           -1.6806     8.2392    -0.0687 H            1    LIG   0.0000
  54 H           -0.8435     9.4324    -0.8051 H            1    LIG   0.0000
  55 H           -2.2030     8.8443    -1.4926 H            1    LIG   0.0000
  56 H            3.1355     2.0066    -0.0421 H            1    LIG   0.0000
  57 H            3.2707    -0.3726    -0.0245 H            1    LIG   0.0000
  58 H            1.2496    -1.6746     0.0120 H            1    LIG   0.0000
  59 H           -0.8618    -0.5495     0.0378 H            1    LIG   0.0000
  60 H           -3.6636     3.7081    -1.5484 H            1    LIG   0.0000
@<TRIPOS>BOND
   1        1        2 1
   2        2        3 1
   3        3        4 ar
   4        4        5 ar
   5        5        6 ar
   6        6        7 ar
   7        7        8 1
   8        8        9 1
   9        9       10 1
  10       10       11 2
  11       11       12 1
  12       12       13 2
  13       12       14 1
  14       14       15 1
  15       15       16 2
  16       16       17 1
  17       17       18 1
  18       18       19 ar
  19       19       20 ar
  20       20       21 ar
  21       21       22 ar
  22       22       23 ar
  23       23       24 ar
  24       24       25 ar
  25       25       26 ar
  26       26       21 ar
  27       26       27 ar
  28       27       18 ar
  29       17       28 1
  30       28       14 2
  31       28       29 1
  32       10       30 1
  33       30       31 1
  34       31       32 ar
  35       32       33 ar
  36       33       34 ar
  37       34       35 ar
  38       35       36 ar
  39       36       31 ar
  40       36        9 1
  41        7       37 ar
  42       37        3 ar
  43       30       38 1
  44        1       39 1
  45        1       40 1
  46        1       41 1
  47        4       42 1
  48        5       43 1
  49        6       44 1
  50        8       45 1
  51        8       46 1
  52       19       47 1
  53       20       48 1
  54       23       49 1
  55       24       50 1
  56       25       51 1
  57       27       52 1
  58       29       53 1
  59       29       54 1
  60       29       55 1
  61       32       56 1
  62       33       57 1
  63       34       58 1
  64       35       59 1
  65       37       60 1

@<TRIPOS>MOLECULE

  60   65
SMALL
USER_CHARGES
@<TRIPOS>ATOM
   1 C1          -3.9113    -0.8588    -5.2517 C.3          1    LIG   0.0000
   2 O2          -3.4025    -0.8313    -3.9263 O.3          1    LIG   0.0000
   3 C3          -3.4717     0.3636    -3.3019 C.ar         1    LIG   0.0000
   4 C4          -4.0173     1.4555    -3.9693 C.ar         1    LIG   0.0000
   5 C5          -4.0831     2.6816    -3.3162 C.ar         1    LIG   0.0000
   6 C6          -3.6134     2.8218    -2.0146 C.ar         1    LIG   0.0000
   7 C7          -3.0719     1.7167    -1.3662 C.ar         1    LIG   0.0000
   8 C8          -2.5554     1.8599     0.0562 C.3          1    LIG   0.0000
   9 N9          -1.1314     2.2349     0.0259 N.pl3        1    LIG   0.0000
  10 C10         -0.6583     3.5101     0.0124 C.2          1    LIG   0.0000
  11 N11         -1.3547     4.5710     0.0182 N.2          1    LIG   0.0000
  12 C12         -0.6144     5.7236     0.0010 C.2          1    LIG   0.0000
  13 O13         -0.3065     6.2234    -1.0456 O.2          1    LIG   0.0000
  14 C14         -0.2026     6.3400     1.2484 C.2          1    LIG   0.0000
  15 N15         -1.0211     6.7987     2.2337 N.2          1    LIG   0.0000
  16 N16         -0.2966     7.2658     3.1586 N.2          1    LIG   0.0000
  17 N17          0.9790     7.1641     2.8777 N.pl3        1    LIG   0.0000
  18 C18          2.0410     7.5873     3.6858 C.ar         1    LIG   0.0000
  19 C19          2.0320     8.8741     4.2134 C.ar         1    LIG   0.0000
  20 C20          3.0918     9.2843     5.0154 C.ar         1    LIG   0.0000
  21 C21          4.1539     8.4305     5.2953 C.ar         1    LIG   0.0000
  22 N22          5.1782     8.8209     6.0683 N.ar         1    LIG   0.0000
  23 C23          6.2031     7.9999     6.3427 C.ar         1    LIG   0.0000
  24 C24          6.2382     6.7073     5.8303 C.ar         1    LIG   0.0000
  25 C25          5.1893     6.2782     5.0247 C.ar         1    LIG   0.0000
  26 C26          4.1372     7.1477     4.7549 C.ar         1    LIG   0.0000
  27 C27          3.0898     6.7128     3.9504 C.ar         1    LIG   0.0000
  28 C28          1.0714     6.5690     1.6577 C.2          1    LIG   0.0000
  29 C29          2.3486     6.2345     0.9033 C.3          1    LIG   0.0000
  30 N30          0.7004     3.4417    -0.0139 N.pl3        1    LIG   0.0000
  31 C31          1.0674     2.1259    -0.0101 C.ar         1    LIG   0.0000
  32 C32          2.2935     1.4674    -0.0246 C.ar         1    LIG   0.0000
  33 C33          2.3784     0.0788    -0.0153 C.ar         1    LIG   0.0000
  34 C34          1.2095    -0.6754     0.0069 C.ar         1    LIG   0.0000
  35 C35         -0.0153    -0.0174     0.0218 C.ar         1    LIG   0.0000
  36 C36         -0.0774     1.3718     0.0148 C.ar         1    LIG   0.0000
  37 C37         -2.9958     0.4812    -2.0004 C.ar         1    LIG   0.0000
  38 H            1.3247     4.2227    -0.0329 H            1    LIG   0.0000
  39 H           -3.8161    -1.7811    -5.6262 H            1    LIG   0.0000
  40 H           -4.8773    -0.6005    -5.2434 H            1    LIG   0.0000
  41 H           -3.3988    -0.2142    -5.8189 H            1    LIG   0.0000
  42 H           -4.3572     1.3602    -4.9050 H            1    LIG   0.0000
  43 H           -4.4730     3.4723    -3.7883 H            1    LIG   0.0000
  44 H           -3.6644     3.7062    -1.5506 H            1    LIG   0.0000
  45 H           -3.0769     2.5692     0.5304 H            1    LIG   0.0000
  46 H           -2.6608     0.9901     0.5382 H            1    LIG   0.0000
  47 H            1.2736     9.4962     4.0187 H            1    LIG   0.0000
  48 H            3.0902    10.2085     5.3973 H            1    LIG   0.0000
  49 H            6.9513     8.3214     6.9231 H            1    LIG   0.0000
  50 H            7.0036     6.0980     6.0375 H            1    LIG   0.0000
  51 H            5.1911     5.3539     4.6429 H            1    LIG   0.0000
  52 H            3.0906     5.7883     3.5690 H            1    LIG   0.0000
  53 H            2.1174     5.8014     0.0321 H            1    LIG   0.0000
  54 H            2.8641     7.0741     0.7318 H            1    LIG   0.0000
  55 H            2.9042     5.6080     1.4499 H            1    LIG   0.0000
  56 H            3.1355     2.0066    -0.0421 H            1    LIG   0.0000
  57 H            3.2707    -0.3726    -0.0245 H            1    LIG   0.0000
  58 H            1.2496    -1.6746     0.0120 H            1    LIG   0.0000
  59 H           -0.8618    -0.5495     0.0378 H            1    LIG   0.0000
  60 H           -2.6054    -0.3093    -1.5285 H            1    LIG   0.0000
@<TRIPOS>BOND
   1        1        2 1
   2        2        3 1
   3        3        4 ar
   4        4        5 ar
   5        5        6 ar
   6        6        7 ar
   7        7        8 1
   8        8        9 1
   9        9       10 1
  10       10       11 2
  11       11       12 1
  12       12       13 2
  13       12       14 1
  14       14       15 1
  15       15       16 2
  16       16       17 1
  17       17       18 1
  18       18       19 ar
  19       19       20 ar
  20       20       21 ar
  21       21       22 ar
  22       22       23 ar
  23       23       24 ar
  24       24       25 ar
  25       25       26 ar
  26       26       21 ar
  27       26       27 ar
  28       27       18 ar
  29       17       28 1
  30       28       14 2
  31       28       29 1
  32       10       30 1
  33       30       31 1
  34       31       32 ar
  35       32       33 ar
  36       33       34 ar
  37       34       35 ar
  38       35       36 ar
  39       36       31 ar
  40       36        9 1
  41        7       37 ar
  42       37        3 ar
  43       30       38 1
  44        1       39 1
  45        1       40 1
  46        1       41 1
  47        4       42 1
  48        5       43 1
  49        6       44 1
  50        8       45 1
  51        8       46 1
  52       19       47 1
  53       20       48 1
  54       23       49 1
  55       24       50 1
  56       25       51 1
  57       27       52 1
  58       29       53 1
  59       29       54 1
  60       29       55 1
  61       32       56 1
  62       33       57 1
  63       34       58 1
  64       35       59 1
  65       37       60 1

@<TRIPOS>MOLECULE

  60   65
SMALL
USER_CHARGES
@<TRIPOS>ATOM
   1 C1          -3.9113    -0.8588    -5.2517 C.3          1    LIG   0.0000
   2 O2          -3.4025    -0.8313    -3.9263 O.3          1    LIG   0.0000
   3 C3          -3.4717     0.3636    -3.3019 C.ar         1    LIG   0.0000
   4 C4          -4.0173     1.4555    -3.9693 C.ar         1    LIG   0.0000
   5 C5          -4.0831     2.6816    -3.3162 C.ar         1    LIG   0.0000
   6 C6          -3.6134     2.8218    -2.0146 C.ar         1    LIG   0.0000
   7 C7          -3.0719     1.7167    -1.3662 C.ar         1    LIG   0.0000
   8 C8          -2.5554     1.8599     0.0562 C.3          1    LIG   0.0000
   9 N9          -1.1314     2.2349     0.0259 N.pl3        1    LIG   0.0000
  10 C10         -0.6583     3.5101     0.0124 C.2          1    LIG   0.0000
  11 N11         -1.3547     4.5710     0.0182 N.2          1    LIG   0.0000
  12 C12         -0.6144     5.7236     0.0010 C.2          1    LIG   0.0000
  13 O13         -0.3065     6.2234    -1.0456 O.2          1    LIG   0.0000
  14 C14         -0.2026     6.3400     1.2484 C.2          1    LIG   0.0000
  15 N15          0.5723     5.7751     2.2136 N.2          1    LIG   0.0000
  16 N16          0.7131     6.6177     3.1455 N.2          1    LIG   0.0000
  17 N17          0.0805     7.7366     2.8914 N.pl3        1    LIG   0.0000
  18 C18          0.0324     8.8663     3.7168 C.ar         1    LIG   0.0000
  19 C19         -0.3023     8.7222     5.0591 C.ar         1    LIG   0.0000
  20 C20         -0.3468     9.8511     5.8705 C.ar         1    LIG   0.0000
  21 C21         -0.0629    11.1142     5.3612 C.ar         1    LIG   0.0000
  22 N22         -0.1041    12.2059     6.1393 N.ar         1    LIG   0.0000
  23 C23          0.1714    13.4253     5.6527 C.ar         1    LIG   0.0000
  24 C24          0.5106    13.5995     4.3151 C.ar         1    LIG   0.0000
  25 C25          0.5589    12.4840     3.4864 C.ar         1    LIG   0.0000
  26 C26          0.2699    11.2296     4.0144 C.ar         1    LIG   0.0000
  27 C27          0.3217    10.1172     3.1818 C.ar         1    LIG   0.0000
  28 C28         -0.5144     7.5900     1.6767 C.2          1    LIG   0.0000
  29 C29         -1.3638     8.6207     0.9496 C.3          1    LIG   0.0000
  30 N30          0.7004     3.4417    -0.0139 N.pl3        1    LIG   0.0000
  31 C31          1.0674     2.1259    -0.0101 C.ar         1    LIG   0.0000
  32 C32          2.2935     1.4674    -0.0246 C.ar         1    LIG   0.0000
  33 C33          2.3784     0.0788    -0.0153 C.ar         1    LIG   0.0000
  34 C34          1.2095    -0.6754     0.0069 C.ar         1    LIG   0.0000
  35 C35         -0.0153    -0.0174     0.0218 C.ar         1    LIG   0.0000
  36 C36         -0.0774     1.3718     0.0148 C.ar         1    LIG   0.0000
  37 C37         -2.9958     0.4812    -2.0004 C.ar         1    LIG   0.0000
  38 H            1.3247     4.2227    -0.0329 H            1    LIG   0.0000
  39 H           -3.8161    -1.7811    -5.6262 H            1    LIG   0.0000
  40 H           -4.8773    -0.6005    -5.2434 H            1    LIG   0.0000
  41 H           -3.3988    -0.2142    -5.8189 H            1    LIG   0.0000
  42 H           -4.3572     1.3602    -4.9050 H            1    LIG   0.0000
  43 H           -4.4730     3.4723    -3.7883 H            1    LIG   0.0000
  44 H           -3.6644     3.7062    -1.5506 H            1    LIG   0.0000
  45 H           -3.0769     2.5692     0.5304 H            1    LIG   0.0000
  46 H           -2.6608     0.9901     0.5382 H            1    LIG   0.0000
  47 H           -0.5082     7.8190     5.4358 H            1    LIG   0.0000
  48 H           -0.5869     9.7531     6.8363 H            1    LIG   0.0000
  49 H            0.1324    14.2193     6.2595 H            1    LIG   0.0000
  50 H            0.7159    14.5100     3.9561 H            1    LIG   0.0000
  51 H            0.7990    12.5823     2.5207 H            1    LIG   0.0000
  52 H            0.5626    10.2146     2.2161 H            1    LIG   0.0000
  53 H           -1.6713     8.2429     0.0763 H            1    LIG   0.0000
  54 H           -2.1583     8.8533     1.5105 H            1    LIG   0.0000
  55 H           -0.8202     9.4435     0.7840 H            1    LIG   0.0000
  56 H            3.1355     2.0066    -0.0421 H            1    LIG   0.0000
  57 H            3.2707    -0.3726    -0.0245 H            1    LIG   0.0000
  58 H            1.2496    -1.6746     0.0120 H            1    LIG   0.0000
  59 H           -0.8618    -0.5495     0.0378 H            1    LIG   0.0000
  60 H           -2.6054    -0.3093    -1.5285 H            1    LIG   0.0000
@<TRIPOS>BOND
   1        1        2 1
   2        2        3 1
   3        3        4 ar
   4        4        5 ar
   5        5        6 ar
   6        6        7 ar
   7        7        8 1
   8        8        9 1
   9        9       10 1
  10       10       11 2
  11       11       12 1
  12       12       13 2
  13       12       14 1
  14       14       15 1
  15       15       16 2
  16       16       17 1
  17       17       18 1
  18       18       19 ar
  19       19       20 ar
  20       20       21 ar
  21       21       22 ar
  22       22       23 ar
  23       23       24 ar
  24       24       25 ar
  25       25       26 ar
  26       26       21 ar
  27       26       27 ar
  28       27       18 ar
  29       17       28 1
  30       28       14 2
  31       28       29 1
  32       10       30 1
  33       30       31 1
  34       31       32 ar
  35       32       33 ar
  36       33       34 ar
  37       34       35 ar
  38       35       36 ar
  39       36       31 ar
  40       36        9 1
  41        7       37 ar
  42       37        3 ar
  43       30       38 1
  44        1       39 1
  45        1       40 1
  46        1       41 1
  47        4       42 1
  48        5       43 1
  49        6       44 1
  50        8       45 1
  51        8       46 1
  52       19       47 1
  53       20       48 1
  54       23       49 1
  55       24       50 1
  56       25       51 1
  57       27       52 1
  58       29       53 1
  59       29       54 1
  60       29       55 1
  61       32       56 1
  62       33       57 1
  63       34       58 1
  64       35       59 1
  65       37       60 1

@<TRIPOS>MOLECULE

  60   65
SMALL
USER_CHARGES
@<TRIPOS>ATOM
   1 C1          -3.9113    -0.8588    -5.2517 C.3          1    LIG   0.0000
   2 O2          -3.4025    -0.8313    -3.9263 O.3          1    LIG   0.0000
   3 C3          -3.4717     0.3636    -3.3019 C.ar         1    LIG   0.0000
   4 C4          -4.0173     1.4555    -3.9693 C.ar         1    LIG   0.0000
   5 C5          -4.0831     2.6816    -3.3162 C.ar         1    LIG   0.0000
   6 C6          -3.6134     2.8218    -2.0146 C.ar         1    LIG   0.0000
   7 C7          -3.0719     1.7167    -1.3662 C.ar         1    LIG   0.0000
   8 C8          -2.5554     1.8599     0.0562 C.3          1    LIG   0.0000
   9 N9          -1.1314     2.2349     0.0259 N.pl3        1    LIG   0.0000
  10 C10         -0.6583     3.5101     0.0124 C.2          1    LIG   0.0000
  11 N11         -1.3547     4.5710     0.0182 N.2          1    LIG   0.0000
  12 C12         -0.6144     5.7236     0.0010 C.2          1    LIG   0.0000
  13 O13         -0.2738     6.2334     1.0326 O.2          1    LIG   0.0000
  14 C14         -0.2421     6.3280    -1.2645 C.2          1    LIG   0.0000
  15 N15         -1.0913     6.7773    -2.2280 N.2          1    LIG   0.0000
  16 N16         -0.3963     7.2359    -3.1793 N.2          1    LIG   0.0000
  17 N17          0.8876     7.1313    -2.9403 N.pl3        1    LIG   0.0000
  18 C18          1.9237     7.5397    -3.7887 C.ar         1    LIG   0.0000
  19 C19          3.0590     6.7465    -3.9171 C.ar         1    LIG   0.0000
  20 C20          4.0823     7.1614    -4.7630 C.ar         1    LIG   0.0000
  21 C21          3.9864     8.3511    -5.4777 C.ar         1    LIG   0.0000
  22 N22          4.9701     8.7556    -6.2949 N.ar         1    LIG   0.0000
  23 C23          4.8805     9.9008    -6.9878 C.ar         1    LIG   0.0000
  24 C24          3.7567    10.7132    -6.8804 C.ar         1    LIG   0.0000
  25 C25          2.7231    10.3176    -6.0386 C.ar         1    LIG   0.0000
  26 C26          2.8388     9.1253    -5.3310 C.ar         1    LIG   0.0000
  27 C27          1.8013     8.7333    -4.4922 C.ar         1    LIG   0.0000
  28 C28          1.0183     6.5551    -1.7148 C.2          1    LIG   0.0000
  29 C29          2.3187     6.2266    -0.9982 C.3          1    LIG   0.0000
  30 N30          0.7004     3.4417    -0.0139 N.pl3        1    LIG   0.0000
  31 C31          1.0674     2.1259    -0.0101 C.ar         1    LIG   0.0000
  32 C32          2.2935     1.4674    -0.0246 C.ar         1    LIG   0.0000
  33 C33          2.3784     0.0788    -0.0153 C.ar         1    LIG   0.0000
  34 C34          1.2095    -0.6754     0.0069 C.ar         1    LIG   0.0000
  35 C35         -0.0153    -0.0174     0.0218 C.ar         1    LIG   0.0000
  36 C36         -0.0774     1.3718     0.0148 C.ar         1    LIG   0.0000
  37 C37         -2.9958     0.4812    -2.0004 C.ar         1    LIG   0.0000
  38 H            1.3247     4.2227    -0.0329 H            1    LIG   0.0000
  39 H           -3.8161    -1.7811    -5.6262 H            1    LIG   0.0000
  40 H           -4.8773    -0.6005    -5.2434 H            1    LIG   0.0000
  41 H           -3.3988    -0.2142    -5.8189 H            1    LIG   0.0000
  42 H           -4.3572     1.3602    -4.9050 H            1    LIG   0.0000
  43 H           -4.4730     3.4723    -3.7883 H            1    LIG   0.0000
  44 H           -3.6644     3.7062    -1.5506 H            1    LIG   0.0000
  45 H           -3.0769     2.5692     0.5304 H            1    LIG   0.0000
  46 H           -2.6608     0.9901     0.5382 H            1    LIG   0.0000
  47 H            3.1385     5.8894    -3.4081 H            1    LIG   0.0000
  48 H            4.9007     6.5948    -4.8590 H            1    LIG   0.0000
  49 H            5.6314    10.1739    -7.5892 H            1    LIG   0.0000
  50 H            3.6932    11.5660    -7.3989 H            1    LIG   0.0000
  51 H            1.9048    10.8843    -5.9428 H            1    LIG   0.0000
  52 H            0.9823     9.2992    -4.3966 H            1    LIG   0.0000
  53 H            2.1150     5.8083    -0.1130 H            1    LIG   0.0000
  54 H            2.8532     5.5890    -1.5531 H            1    LIG   0.0000
  55 H            2.8430     7.0664    -0.8574 H            1    LIG   0.0000
  56 H            3.1355     2.0066    -0.0421 H            1    LIG   0.0000
  57 H            3.2707    -0.3726    -0.0245 H            1    LIG   0.0000
  58 H            1.2496    -1.6746     0.0120 H            1    LIG   0.0000
  59 H           -0.8618    -0.5495     0.0378 H            1    LIG   0.0000
  60 H           -2.6054    -0.3093    -1.5285 H            1    LIG   0.0000
@<TRIPOS>BOND
   1        1        2 1
   2        2        3 1
   3        3        4 ar
   4        4        5 ar
   5        5        6 ar
   6        6        7 ar
   7        7        8 1
   8        8        9 1
   9        9       10 1
  10       10       11 2
  11       11       12 1
  12       12       13 2
  13       12       14 1
  14       14       15 1
  15       15       16 2
  16       16       17 1
  17       17       18 1
  18       18       19 ar
  19       19       20 ar
  20       20       21 ar
  21       21       22 ar
  22       22       23 ar
  23       23       24 ar
  24       24       25 ar
  25       25       26 ar
  26       26       21 ar
  27       26       27 ar
  28       27       18 ar
  29       17       28 1
  30       28       14 2
  31       28       29 1
  32       10       30 1
  33       30       31 1
  34       31       32 ar
  35       32       33 ar
  36       33       34 ar
  37       34       35 ar
  38       35       36 ar
  39       36       31 ar
  40       36        9 1
  41        7       37 ar
  42       37        3 ar
  43       30       38 1
  44        1       39 1
  45        1       40 1
  46        1       41 1
  47        4       42 1
  48        5       43 1
  49        6       44 1
  50        8       45 1
  51        8       46 1
  52       19       47 1
  53       20       48 1
  54       23       49 1
  55       24       50 1
  56       25       51 1
  57       27       52 1
  58       29       53 1
  59       29       54 1
  60       29       55 1
  61       32       56 1
  62       33       57 1
  63       34       58 1
  64       35       59 1
  65       37       60 1

@<TRIPOS>MOLECULE

  60   65
SMALL
USER_CHARGES
@<TRIPOS>ATOM
   1 C1          -3.7122    -0.7535     5.4632 C.3          1    LIG   0.0000
   2 O2          -3.2527    -0.7521     4.1196 O.3          1    LIG   0.0000
   3 C3          -3.3458     0.4302     3.4747 C.ar         1    LIG   0.0000
   4 C4          -3.8665     1.5353     4.1404 C.ar         1    LIG   0.0000
   5 C5          -3.9579     2.7481     3.4659 C.ar         1    LIG   0.0000
   6 C6          -3.5361     2.8627     2.1455 C.ar         1    LIG   0.0000
   7 C7          -3.0185     1.7449     1.4993 C.ar         1    LIG   0.0000
   8 C8          -2.5554     1.8599     0.0562 C.3          1    LIG   0.0000
   9 N9          -1.1314     2.2349     0.0259 N.pl3        1    LIG   0.0000
  10 C10         -0.6583     3.5101     0.0124 C.2          1    LIG   0.0000
  11 N11         -1.3547     4.5710     0.0182 N.2          1    LIG   0.0000
  12 C12         -0.6144     5.7236     0.0010 C.2          1    LIG   0.0000
  13 O13         -0.3065     6.2234    -1.0456 O.2          1    LIG   0.0000
  14 C14         -0.2026     6.3400     1.2484 C.2          1    LIG   0.0000
  15 N15         -1.0211     6.7987     2.2337 N.2          1    LIG   0.0000
  16 N16         -0.2966     7.2658     3.1586 N.2          1    LIG   0.0000
  17 N17          0.9790     7.1641     2.8777 N.pl3        1    LIG   0.0000
  18 C18          2.0410     7.5873     3.6858 C.ar         1    LIG   0.0000
  19 C19          3.1851     6.8022     3.7828 C.ar         1    LIG   0.0000
  20 C20          4.2346     7.2321     4.5881 C.ar         1    LIG   0.0000
  21 C21          4.1562     8.4288     5.2932 C.ar         1    LIG   0.0000
  22 N22          5.1654     8.8480     6.0709 N.ar         1    LIG   0.0000
  23 C23          5.0949    10.0025     6.7505 C.ar         1    LIG   0.0000
  24 C24          3.9642    10.8087     6.6714 C.ar         1    LIG   0.0000
  25 C25          2.9029    10.3962     5.8732 C.ar         1    LIG   0.0000
  26 C26          2.9999     9.1953     5.1774 C.ar         1    LIG   0.0000
  27 C27          1.9365     8.7885     4.3791 C.ar         1    LIG   0.0000
  28 C28          1.0714     6.5690     1.6577 C.2          1    LIG   0.0000
  29 C29          2.3486     6.2345     0.9033 C.3          1    LIG   0.0000
  30 N30          0.7004     3.4417    -0.0139 N.pl3        1    LIG   0.0000
  31 C31          1.0674     2.1259    -0.0101 C.ar         1    LIG   0.0000
  32 C32          2.2935     1.4674    -0.0246 C.ar         1    LIG   0.0000
  33 C33          2.3784     0.0788    -0.0153 C.ar         1    LIG   0.0000
  34 C34          1.2095    -0.6754     0.0069 C.ar         1    LIG   0.0000
  35 C35         -0.0153    -0.0174     0.0218 C.ar         1    LIG   0.0000
  36 C36         -0.0774     1.3718     0.0148 C.ar         1    LIG   0.0000
  37 C37         -2.9184     0.5221     2.1544 C.ar         1    LIG   0.0000
  38 H            1.3247     4.2227    -0.0329 H            1    LIG   0.0000
  39 H           -3.6025    -1.6683     5.8520 H            1    LIG   0.0000
  40 H           -3.1796    -0.0978     5.9983 H            1    LIG   0.0000
  41 H           -4.6781    -0.4955     5.4854 H            1    LIG   0.0000
  42 H           -4.1706     1.4587     5.0900 H            1    LIG   0.0000
  43 H           -4.3315     3.5477     3.9361 H            1    LIG   0.0000
  44 H           -3.6040     3.7380     1.6667 H            1    LIG   0.0000
  45 H           -2.6784     0.9808    -0.4044 H            1    LIG   0.0000
  46 H           -3.0945     2.5599    -0.4122 H            1    LIG   0.0000
  47 H            3.2522     5.9402     3.2803 H            1    LIG   0.0000
  48 H            5.0594     6.6715     4.6614 H            1    LIG   0.0000
  49 H            5.8651    10.2872     7.3213 H            1    LIG   0.0000
  50 H            3.9155    11.6689     7.1789 H            1    LIG   0.0000
  51 H            2.0782    10.9570     5.8001 H            1    LIG   0.0000
  52 H            1.1119     9.3493     4.3049 H            1    LIG   0.0000
  53 H            2.1174     5.8014     0.0321 H            1    LIG   0.0000
  54 H            2.8641     7.0741     0.7318 H            1    LIG   0.0000
  55 H            2.9042     5.6080     1.4499 H            1    LIG   0.0000
  56 H            3.1355     2.0066    -0.0421 H            1    LIG   0.0000
  57 H            3.2707    -0.3726    -0.0245 H            1    LIG   0.0000
  58 H            1.2496    -1.6746     0.0120 H            1    LIG   0.0000
  59 H           -0.8618    -0.5495     0.0378 H            1    LIG   0.0000
  60 H           -2.5452    -0.2775     1.6841 H            1    LIG   0.0000
@<TRIPOS>BOND
   1        1        2 1
   2        2        3 1
   3        3        4 ar
   4        4        5 ar
   5        5        6 ar
   6        6        7 ar
   7        7        8 1
   8        8        9 1
   9        9       10 1
  10       10       11 2
  11       11       12 1
  12       12       13 2
  13       12       14 1
  14       14       15 1
  15       15       16 2
  16       16       17 1
  17       17       18 1
  18       18       19 ar
  19       19       20 ar
  20       20       21 ar
  21       21       22 ar
  22       22       23 ar
  23       23       24 ar
  24       24       25 ar
  25       25       26 ar
  26       26       21 ar
  27       26       27 ar
  28       27       18 ar
  29       17       28 1
  30       28       14 2
  31       28       29 1
  32       10       30 1
  33       30       31 1
  34       31       32 ar
  35       32       33 ar
  36       33       34 ar
  37       34       35 ar
  38       35       36 ar
  39       36       31 ar
  40       36        9 1
  41        7       37 ar
  42       37        3 ar
  43       30       38 1
  44        1       39 1
  45        1       40 1
  46        1       41 1
  47        4       42 1
  48        5       43 1
  49        6       44 1
  50        8       45 1
  51        8       46 1
  52       19       47 1
  53       20       48 1
  54       23       49 1
  55       24       50 1
  56       25       51 1
  57       27       52 1
  58       29       53 1
  59       29       54 1
  60       29       55 1
  61       32       56 1
  62       33       57 1
  63       34       58 1
  64       35       59 1
  65       37       60 1

@<TRIPOS>MOLECULE

  60   65
SMALL
USER_CHARGES
@<TRIPOS>ATOM
   1 C1          -3.7122    -0.7535     5.4632 C.3          1    LIG   0.0000
   2 O2          -3.2527    -0.7521     4.1196 O.3          1    LIG   0.0000
   3 C3          -3.3458     0.4302     3.4747 C.ar         1    LIG   0.0000
   4 C4          -3.8665     1.5353     4.1404 C.ar         1    LIG   0.0000
   5 C5          -3.9579     2.7481     3.4659 C.ar         1    LIG   0.0000
   6 C6          -3.5361     2.8627     2.1455 C.ar         1    LIG   0.0000
   7 C7          -3.0185     1.7449     1.4993 C.ar         1    LIG   0.0000
   8 C8          -2.5554     1.8599     0.0562 C.3          1    LIG   0.0000
   9 N9          -1.1314     2.2349     0.0259 N.pl3        1    LIG   0.0000
  10 C10         -0.6583     3.5101     0.0124 C.2          1    LIG   0.0000
  11 N11         -1.3547     4.5710     0.0182 N.2          1    LIG   0.0000
  12 C12         -0.6144     5.7236     0.0010 C.2          1    LIG   0.0000
  13 O13         -0.2738     6.2334     1.0326 O.2          1    LIG   0.0000
  14 C14         -0.2421     6.3280    -1.2645 C.2          1    LIG   0.0000
  15 N15          0.5021     5.7536    -2.2481 N.2          1    LIG   0.0000
  16 N16          0.6128     6.5870    -3.1923 N.2          1    LIG   0.0000
  17 N17         -0.0065     7.7106    -2.9267 N.pl3        1    LIG   0.0000
  18 C18         -0.0745     8.8351    -3.7579 C.ar         1    LIG   0.0000
  19 C19         -1.2656     9.5469    -3.8538 C.ar         1    LIG   0.0000
  20 C20         -1.3223    10.6628    -4.6821 C.ar         1    LIG   0.0000
  21 C21         -0.2111    11.0742    -5.4112 C.ar         1    LIG   0.0000
  22 N22         -0.2603    12.1497    -6.2112 N.ar         1    LIG   0.0000
  23 C23          0.8095    12.5512    -6.9140 C.ar         1    LIG   0.0000
  24 C24          2.0140    11.8599    -6.8365 C.ar         1    LIG   0.0000
  25 C25          2.0913    10.7403    -6.0156 C.ar         1    LIG   0.0000
  26 C26          0.9684    10.3439    -5.2960 C.ar         1    LIG   0.0000
  27 C27          1.0518     9.2248    -4.4749 C.ar         1    LIG   0.0000
  28 C28         -0.5695     7.5729    -1.6958 C.2          1    LIG   0.0000
  29 C29         -1.3948     8.6111    -0.9519 C.3          1    LIG   0.0000
  30 N30          0.7004     3.4417    -0.0139 N.pl3        1    LIG   0.0000
  31 C31          1.0674     2.1259    -0.0101 C.ar         1    LIG   0.0000
  32 C32          2.2935     1.4674    -0.0246 C.ar         1    LIG   0.0000
  33 C33          2.3784     0.0788    -0.0153 C.ar         1    LIG   0.0000
  34 C34          1.2095    -0.6754     0.0069 C.ar         1    LIG   0.0000
  35 C35         -0.0153    -0.0174     0.0218 C.ar         1    LIG   0.0000
  36 C36         -0.0774     1.3718     0.0148 C.ar         1    LIG   0.0000
  37 C37         -2.9184     0.5221     2.1544 C.ar         1    LIG   0.0000
  38 H            1.3247     4.2227    -0.0329 H            1    LIG   0.0000
  39 H           -3.6025    -1.6683     5.8520 H            1    LIG   0.0000
  40 H           -3.1796    -0.0978     5.9983 H            1    LIG   0.0000
  41 H           -4.6781    -0.4955     5.4854 H            1    LIG   0.0000
  42 H           -4.1706     1.4587     5.0900 H            1    LIG   0.0000
  43 H           -4.3315     3.5477     3.9361 H            1    LIG   0.0000
  44 H           -3.6040     3.7380     1.6667 H            1    LIG   0.0000
  45 H           -2.6784     0.9808    -0.4044 H            1    LIG   0.0000
  46 H           -3.0945     2.5599    -0.4122 H            1    LIG   0.0000
  47 H           -2.0705     9.2602    -3.3342 H            1    LIG   0.0000
  48 H           -2.1762    11.1782    -4.7548 H            1    LIG   0.0000
  49 H            0.7402    13.3577    -7.5010 H            1    LIG   0.0000
  50 H            2.8096    12.1625    -7.3614 H            1    LIG   0.0000
  51 H            2.9453    10.2251    -5.9431 H            1    LIG   0.0000
  52 H            1.9057     8.7097    -4.4013 H            1    LIG   0.0000
  53 H           -1.6806     8.2392    -0.0687 H            1    LIG   0.0000
  54 H           -0.8435     9.4324    -0.8051 H            1    LIG   0.0000
  55 H           -2.2030     8.8443    -1.4926 H            1    LIG   0.0000
  56 H            3.1355     2.0066    -0.0421 H            1    LIG   0.0000
  57 H            3.2707    -0.3726    -0.0245 H            1    LIG   0.0000
  58 H            1.2496    -1.6746     0.0120 H            1    LIG   0.0000
  59 H           -0.8618    -0.5495     0.0378 H            1    LIG   0.0000
  60 H           -2.5452    -0.2775     1.6841 H            1    LIG   0.0000
@<TRIPOS>BOND
   1        1        2 1
   2        2        3 1
   3        3        4 ar
   4        4        5 ar
   5        5        6 ar
   6        6        7 ar
   7        7        8 1
   8        8        9 1
   9        9       10 1
  10       10       11 2
  11       11       12 1
  12       12       13 2
  13       12       14 1
  14       14       15 1
  15       15       16 2
  16       16       17 1
  17       17       18 1
  18       18       19 ar
  19       19       20 ar
  20       20       21 ar
  21       21       22 ar
  22       22       23 ar
  23       23       24 ar
  24       24       25 ar
  25       25       26 ar
  26       26       21 ar
  27       26       27 ar
  28       27       18 ar
  29       17       28 1
  30       28       14 2
  31       28       29 1
  32       10       30 1
  33       30       31 1
  34       31       32 ar
  35       32       33 ar
  36       33       34 ar
  37       34       35 ar
  38       35       36 ar
  39       36       31 ar
  40       36        9 1
  41        7       37 ar
  42       37        3 ar
  43       30       38 1
  44        1       39 1
  45        1       40 1
  46        1       41 1
  47        4       42 1
  48        5       43 1
  49        6       44 1
  50        8       45 1
  51        8       46 1
  52       19       47 1
  53       20       48 1
  54       23       49 1
  55       24       50 1
  56       25       51 1
  57       27       52 1
  58       29       53 1
  59       29       54 1
  60       29       55 1
  61       32       56 1
  62       33       57 1
  63       34       58 1
  64       35       59 1
  65       37       60 1

@<TRIPOS>MOLECULE

  60   65
SMALL
USER_CHARGES
@<TRIPOS>ATOM
   1 C1          -3.7122    -0.7535     5.4632 C.3          1    LIG   0.0000
   2 O2          -3.2527    -0.7521     4.1196 O.3          1    LIG   0.0000
   3 C3          -3.3458     0.4302     3.4747 C.ar         1    LIG   0.0000
   4 C4          -3.8665     1.5353     4.1404 C.ar         1    LIG   0.0000
   5 C5          -3.9579     2.7481     3.4659 C.ar         1    LIG   0.0000
   6 C6          -3.5361     2.8627     2.1455 C.ar         1    LIG   0.0000
   7 C7          -3.0185     1.7449     1.4993 C.ar         1    LIG   0.0000
   8 C8          -2.5554     1.8599     0.0562 C.3          1    LIG   0.0000
   9 N9          -1.1314     2.2349     0.0259 N.pl3        1    LIG   0.0000
  10 C10         -0.6583     3.5101     0.0124 C.2          1    LIG   0.0000
  11 N11         -1.3547     4.5710     0.0182 N.2          1    LIG   0.0000
  12 C12         -0.6144     5.7236     0.0010 C.2          1    LIG   0.0000
  13 O13         -0.2738     6.2334     1.0326 O.2          1    LIG   0.0000
  14 C14         -0.2421     6.3280    -1.2645 C.2          1    LIG   0.0000
  15 N15         -1.0913     6.7773    -2.2280 N.2          1    LIG   0.0000
  16 N16         -0.3963     7.2359    -3.1793 N.2          1    LIG   0.0000
  17 N17          0.8876     7.1313    -2.9403 N.pl3        1    LIG   0.0000
  18 C18          1.9237     7.5397    -3.7887 C.ar         1    LIG   0.0000
  19 C19          3.0510     8.1514    -3.2505 C.ar         1    LIG   0.0000
  20 C20          4.0748     8.5529    -4.1021 C.ar         1    LIG   0.0000
  21 C21          3.9872     8.3524    -5.4761 C.ar         1    LIG   0.0000
  22 N22          4.9717     8.7374    -6.3016 N.ar         1    LIG   0.0000
  23 C23          4.8924     8.5437    -7.6267 C.ar         1    LIG   0.0000
  24 C24          3.7781     7.9333    -8.1928 C.ar         1    LIG   0.0000
  25 C25          2.7425     7.5261    -7.3590 C.ar         1    LIG   0.0000
  26 C26          2.8482     7.7372    -5.9878 C.ar         1    LIG   0.0000
  27 C27          1.8106     7.3261    -5.1584 C.ar         1    LIG   0.0000
  28 C28          1.0183     6.5551    -1.7148 C.2          1    LIG   0.0000
  29 C29          2.3187     6.2266    -0.9982 C.3          1    LIG   0.0000
  30 N30          0.7004     3.4417    -0.0139 N.pl3        1    LIG   0.0000
  31 C31          1.0674     2.1259    -0.0101 C.ar         1    LIG   0.0000
  32 C32          2.2935     1.4674    -0.0246 C.ar         1    LIG   0.0000
  33 C33          2.3784     0.0788    -0.0153 C.ar         1    LIG   0.0000
  34 C34          1.2095    -0.6754     0.0069 C.ar         1    LIG   0.0000
  35 C35         -0.0153    -0.0174     0.0218 C.ar         1    LIG   0.0000
  36 C36         -0.0774     1.3718     0.0148 C.ar         1    LIG   0.0000
  37 C37         -2.9184     0.5221     2.1544 C.ar         1    LIG   0.0000
  38 H            1.3247     4.2227    -0.0329 H            1    LIG   0.0000
  39 H           -3.6025    -1.6683     5.8520 H            1    LIG   0.0000
  40 H           -3.1796    -0.0978     5.9983 H            1    LIG   0.0000
  41 H           -4.6781    -0.4955     5.4854 H            1    LIG   0.0000
  42 H           -4.1706     1.4587     5.0900 H            1    LIG   0.0000
  43 H           -4.3315     3.5477     3.9361 H            1    LIG   0.0000
  44 H           -3.6040     3.7380     1.6667 H            1    LIG   0.0000
  45 H           -2.6784     0.9808    -0.4044 H            1    LIG   0.0000
  46 H           -3.0945     2.5599    -0.4122 H            1    LIG   0.0000
  47 H            3.1244     8.3005    -2.2644 H            1    LIG   0.0000
  48 H            4.8874     8.9932    -3.7204 H            1    LIG   0.0000
  49 H            5.6440     8.8419    -8.2151 H            1    LIG   0.0000
  50 H            3.7227     7.7900    -9.1809 H            1    LIG   0.0000
  51 H            1.9299     7.0858    -7.7410 H            1    LIG   0.0000
  52 H            0.9981     6.8851    -5.5396 H            1    LIG   0.0000
  53 H            2.1150     5.8083    -0.1130 H            1    LIG   0.0000
  54 H            2.8532     5.5890    -1.5531 H            1    LIG   0.0000
  55 H            2.8430     7.0664    -0.8574 H            1    LIG   0.0000
  56 H            3.1355     2.0066    -0.0421 H            1    LIG   0.0000
  57 H            3.2707    -0.3726    -0.0245 H            1    LIG   0.0000
  58 H            1.2496    -1.6746     0.0120 H            1    LIG   0.0000
  59 H           -0.8618    -0.5495     0.0378 H            1    LIG   0.0000
  60 H           -2.5452    -0.2775     1.6841 H            1    LIG   0.0000
@<TRIPOS>BOND
   1        1        2 1
   2        2        3 1
   3        3        4 ar
   4        4        5 ar
   5        5        6 ar
   6        6        7 ar
   7        7        8 1
   8        8        9 1
   9        9       10 1
  10       10       11 2
  11       11       12 1
  12       12       13 2
  13       12       14 1
  14       14       15 1
  15       15       16 2
  16       16       17 1
  17       17       18 1
  18       18       19 ar
  19       19       20 ar
  20       20       21 ar
  21       21       22 ar
  22       22       23 ar
  23       23       24 ar
  24       24       25 ar
  25       25       26 ar
  26       26       21 ar
  27       26       27 ar
  28       27       18 ar
  29       17       28 1
  30       28       14 2
  31       28       29 1
  32       10       30 1
  33       30       31 1
  34       31       32 ar
  35       32       33 ar
  36       33       34 ar
  37       34       35 ar
  38       35       36 ar
  39       36       31 ar
  40       36        9 1
  41        7       37 ar
  42       37        3 ar
  43       30       38 1
  44        1       39 1
  45        1       40 1
  46        1       41 1
  47        4       42 1
  48        5       43 1
  49        6       44 1
  50        8       45 1
  51        8       46 1
  52       19       47 1
  53       20       48 1
  54       23       49 1
  55       24       50 1
  56       25       51 1
  57       27       52 1
  58       29       53 1
  59       29       54 1
  60       29       55 1
  61       32       56 1
  62       33       57 1
  63       34       58 1
  64       35       59 1
  65       37       60 1

@<TRIPOS>MOLECULE

  60   65
SMALL
USER_CHARGES
@<TRIPOS>ATOM
   1 C1          -3.7122    -0.7535     5.4632 C.3          1    LIG   0.0000
   2 O2          -3.2527    -0.7521     4.1196 O.3          1    LIG   0.0000
   3 C3          -3.3458     0.4302     3.4747 C.ar         1    LIG   0.0000
   4 C4          -3.8665     1.5353     4.1404 C.ar         1    LIG   0.0000
   5 C5          -3.9579     2.7481     3.4659 C.ar         1    LIG   0.0000
   6 C6          -3.5361     2.8627     2.1455 C.ar         1    LIG   0.0000
   7 C7          -3.0185     1.7449     1.4993 C.ar         1    LIG   0.0000
   8 C8          -2.5554     1.8599     0.0562 C.3          1    LIG   0.0000
   9 N9          -1.1314     2.2349     0.0259 N.pl3        1    LIG   0.0000
  10 C10         -0.6583     3.5101     0.0124 C.2          1    LIG   0.0000
  11 N11         -1.3547     4.5710     0.0182 N.2          1    LIG   0.0000
  12 C12         -0.6144     5.7236     0.0010 C.2          1    LIG   0.0000
  13 O13         -0.2738     6.2334     1.0326 O.2          1    LIG   0.0000
  14 C14         -0.2421     6.3280    -1.2645 C.2          1    LIG   0.0000
  15 N15          0.8762     7.0619    -1.5133 N.2          1    LIG   0.0000
  16 N16          0.8502     7.4157    -2.7268 N.2          1    LIG   0.0000
  17 N17         -0.2205     6.9759    -3.3405 N.pl3        1    LIG   0.0000
  18 C18         -0.5534     7.1930    -4.6829 C.ar         1    LIG   0.0000
  19 C19         -0.5162     8.4839    -5.1993 C.ar         1    LIG   0.0000
  20 C20         -0.8483     8.6886    -6.5344 C.ar         1    LIG   0.0000
  21 C21         -1.2148     7.6266    -7.3551 C.ar         1    LIG   0.0000
  22 N22         -1.5357     7.8184    -8.6431 N.ar         1    LIG   0.0000
  23 C23         -1.8873     6.7968    -9.4385 C.ar         1    LIG   0.0000
  24 C24         -1.9318     5.4953    -8.9499 C.ar         1    LIG   0.0000
  25 C25         -1.6052     5.2694    -7.6173 C.ar         1    LIG   0.0000
  26 C26         -1.2430     6.3449    -6.8125 C.ar         1    LIG   0.0000
  27 C27         -0.9154     6.1131    -5.4812 C.ar         1    LIG   0.0000
  28 C28         -0.9403     6.2695    -2.4273 C.2          1    LIG   0.0000
  29 C29         -2.2655     5.5622    -2.6640 C.3          1    LIG   0.0000
  30 N30          0.7004     3.4417    -0.0139 N.pl3        1    LIG   0.0000
  31 C31          1.0674     2.1259    -0.0101 C.ar         1    LIG   0.0000
  32 C32          2.2935     1.4674    -0.0246 C.ar         1    LIG   0.0000
  33 C33          2.3784     0.0788    -0.0153 C.ar         1    LIG   0.0000
  34 C34          1.2095    -0.6754     0.0069 C.ar         1    LIG   0.0000
  35 C35         -0.0153    -0.0174     0.0218 C.ar         1    LIG   0.0000
  36 C36         -0.0774     1.3718     0.0148 C.ar         1    LIG   0.0000
  37 C37         -2.9184     0.5221     2.1544 C.ar         1    LIG   0.0000
  38 H            1.3247     4.2227    -0.0329 H            1    LIG   0.0000
  39 H           -3.6025    -1.6683     5.8520 H            1    LIG   0.0000
  40 H           -3.1796    -0.0978     5.9983 H            1    LIG   0.0000
  41 H           -4.6781    -0.4955     5.4854 H            1    LIG   0.0000
  42 H           -4.1706     1.4587     5.0900 H            1    LIG   0.0000
  43 H           -4.3315     3.5477     3.9361 H            1    LIG   0.0000
  44 H           -3.6040     3.7380     1.6667 H            1    LIG   0.0000
  45 H           -2.6784     0.9808    -0.4044 H            1    LIG   0.0000
  46 H           -3.0945     2.5599    -0.4122 H            1    LIG   0.0000
  47 H           -0.2541     9.2546    -4.6186 H            1    LIG   0.0000
  48 H           -0.8232     9.6147    -6.9108 H            1    LIG   0.0000
  49 H           -2.1203     6.9733   -10.3948 H            1    LIG   0.0000
  50 H           -2.1938     4.7363    -9.5459 H            1    LIG   0.0000
  51 H           -1.6304     4.3432    -7.2412 H            1    LIG   0.0000
  52 H           -0.9395     5.1870    -5.1046 H            1    LIG   0.0000
  53 H           -2.5652     5.1236    -1.8168 H            1    LIG   0.0000
  54 H           -2.9517     6.2287    -2.9552 H            1    LIG   0.0000
  55 H           -2.1509     4.8691    -3.3757 H            1    LIG   0.0000
  56 H            3.1355     2.0066    -0.0421 H            1    LIG   0.0000
  57 H            3.2707    -0.3726    -0.0245 H            1    LIG   0.0000
  58 H            1.2496    -1.6746     0.0120 H            1    LIG   0.0000
  59 H           -0.8618    -0.5495     0.0378 H            1    LIG   0.0000
  60 H           -2.5452    -0.2775     1.6841 H            1    LIG   0.0000
@<TRIPOS>BOND
   1        1        2 1
   2        2        3 1
   3        3        4 ar
   4        4        5 ar
   5        5        6 ar
   6        6        7 ar
   7        7        8 1
   8        8        9 1
   9        9       10 1
  10       10       11 2
  11       11       12 1
  12       12       13 2
  13       12       14 1
  14       14       15 1
  15       15       16 2
  16       16       17 1
  17       17       18 1
  18       18       19 ar
  19       19       20 ar
  20       20       21 ar
  21       21       22 ar
  22       22       23 ar
  23       23       24 ar
  24       24       25 ar
  25       25       26 ar
  26       26       21 ar
  27       26       27 ar
  28       27       18 ar
  29       17       28 1
  30       28       14 2
  31       28       29 1
  32       10       30 1
  33       30       31 1
  34       31       32 ar
  35       32       33 ar
  36       33       34 ar
  37       34       35 ar
  38       35       36 ar
  39       36       31 ar
  40       36        9 1
  41        7       37 ar
  42       37        3 ar
  43       30       38 1
  44        1       39 1
  45        1       40 1
  46        1       41 1
  47        4       42 1
  48        5       43 1
  49        6       44 1
  50        8       45 1
  51        8       46 1
  52       19       47 1
  53       20       48 1
  54       23       49 1
  55       24       50 1
  56       25       51 1
  57       27       52 1
  58       29       53 1
  59       29       54 1
  60       29       55 1
  61       32       56 1
  62       33       57 1
  63       34       58 1
  64       35       59 1
  65       37       60 1

@<TRIPOS>MOLECULE

  60   65
SMALL
USER_CHARGES
@<TRIPOS>ATOM
   1 C1          -4.8622     3.6138     5.4418 C.3          1    LIG   0.0000
   2 O2          -4.4589     3.8265     4.0970 O.3          1    LIG   0.0000
   3 C3          -3.9555     2.7460     3.4634 C.ar         1    LIG   0.0000
   4 C4          -3.8658     1.5340     4.1406 C.ar         1    LIG   0.0000
   5 C5          -3.3452     0.4277     3.4777 C.ar         1    LIG   0.0000
   6 C6          -2.9195     0.5233     2.1571 C.ar         1    LIG   0.0000
   7 C7          -3.0185     1.7449     1.4993 C.ar         1    LIG   0.0000
   8 C8          -2.5554     1.8599     0.0562 C.3          1    LIG   0.0000
   9 N9          -1.1314     2.2349     0.0259 N.pl3        1    LIG   0.0000
  10 C10         -0.6583     3.5101     0.0124 C.2          1    LIG   0.0000
  11 N11         -1.3547     4.5710     0.0182 N.2          1    LIG   0.0000
  12 C12         -0.6144     5.7236     0.0010 C.2          1    LIG   0.0000
  13 O13         -0.3065     6.2234    -1.0456 O.2          1    LIG   0.0000
  14 C14         -0.2026     6.3400     1.2484 C.2          1    LIG   0.0000
  15 N15          0.5723     5.7751     2.2136 N.2          1    LIG   0.0000
  16 N16          0.7131     6.6177     3.1455 N.2          1    LIG   0.0000
  17 N17          0.0805     7.7366     2.8914 N.pl3        1    LIG   0.0000
  18 C18          0.0324     8.8663     3.7168 C.ar         1    LIG   0.0000
  19 C19         -0.3023     8.7222     5.0591 C.ar         1    LIG   0.0000
  20 C20         -0.3468     9.8511     5.8705 C.ar         1    LIG   0.0000
  21 C21         -0.0629    11.1142     5.3612 C.ar         1    LIG   0.0000
  22 N22         -0.1041    12.2059     6.1393 N.ar         1    LIG   0.0000
  23 C23          0.1714    13.4253     5.6527 C.ar         1    LIG   0.0000
  24 C24          0.5106    13.5995     4.3151 C.ar         1    LIG   0.0000
  25 C25          0.5589    12.4840     3.4864 C.ar         1    LIG   0.0000
  26 C26          0.2699    11.2296     4.0144 C.ar         1    LIG   0.0000
  27 C27          0.3217    10.1172     3.1818 C.ar         1    LIG   0.0000
  28 C28         -0.5144     7.5900     1.6767 C.2          1    LIG   0.0000
  29 C29         -1.3638     8.6207     0.9496 C.3          1    LIG   0.0000
  30 N30          0.7004     3.4417    -0.0139 N.pl3        1    LIG   0.0000
  31 C31          1.0674     2.1259    -0.0101 C.ar         1    LIG   0.0000
  32 C32          2.2935     1.4674    -0.0246 C.ar         1    LIG   0.0000
  33 C33          2.3784     0.0788    -0.0153 C.ar         1    LIG   0.0000
  34 C34          1.2095    -0.6754     0.0069 C.ar         1    LIG   0.0000
  35 C35         -0.0153    -0.0174     0.0218 C.ar         1    LIG   0.0000
  36 C36         -0.0774     1.3718     0.0148 C.ar         1    LIG   0.0000
  37 C37         -3.5355     2.8643     2.1429 C.ar         1    LIG   0.0000
  38 H            1.3247     4.2227    -0.0329 H            1    LIG   0.0000
  39 H           -5.2187     4.4674     5.8219 H            1    LIG   0.0000
  40 H           -5.5753     2.9133     5.4692 H            1    LIG   0.0000
  41 H           -4.0766     3.3111     5.9815 H            1    LIG   0.0000
  42 H           -4.1711     1.4594     5.0899 H            1    LIG   0.0000
  43 H           -3.2761    -0.4475     3.9566 H            1    LIG   0.0000
  44 H           -2.5468    -0.2763     1.6863 H            1    LIG   0.0000
  45 H           -2.6784     0.9808    -0.4044 H            1    LIG   0.0000
  46 H           -3.0945     2.5599    -0.4122 H            1    LIG   0.0000
  47 H           -0.5082     7.8190     5.4358 H            1    LIG   0.0000
  48 H           -0.5869     9.7531     6.8363 H            1    LIG   0.0000
  49 H            0.1324    14.2193     6.2595 H            1    LIG   0.0000
  50 H            0.7159    14.5100     3.9561 H            1    LIG   0.0000
  51 H            0.7990    12.5823     2.5207 H            1    LIG   0.0000
  52 H            0.5626    10.2146     2.2161 H            1    LIG   0.0000
  53 H           -1.6713     8.2429     0.0763 H            1    LIG   0.0000
  54 H           -2.1583     8.8533     1.5105 H            1    LIG   0.0000
  55 H           -0.8202     9.4435     0.7840 H            1    LIG   0.0000
  56 H            3.1355     2.0066    -0.0421 H            1    LIG   0.0000
  57 H            3.2707    -0.3726    -0.0245 H            1    LIG   0.0000
  58 H            1.2496    -1.6746     0.0120 H            1    LIG   0.0000
  59 H           -0.8618    -0.5495     0.0378 H            1    LIG   0.0000
  60 H           -3.6040     3.7396     1.6641 H            1    LIG   0.0000
@<TRIPOS>BOND
   1        1        2 1
   2        2        3 1
   3        3        4 ar
   4        4        5 ar
   5        5        6 ar
   6        6        7 ar
   7        7        8 1
   8        8        9 1
   9        9       10 1
  10       10       11 2
  11       11       12 1
  12       12       13 2
  13       12       14 1
  14       14       15 1
  15       15       16 2
  16       16       17 1
  17       17       18 1
  18       18       19 ar
  19       19       20 ar
  20       20       21 ar
  21       21       22 ar
  22       22       23 ar
  23       23       24 ar
  24       24       25 ar
  25       25       26 ar
  26       26       21 ar
  27       26       27 ar
  28       27       18 ar
  29       17       28 1
  30       28       14 2
  31       28       29 1
  32       10       30 1
  33       30       31 1
  34       31       32 ar
  35       32       33 ar
  36       33       34 ar
  37       34       35 ar
  38       35       36 ar
  39       36       31 ar
  40       36        9 1
  41        7       37 ar
  42       37        3 ar
  43       30       38 1
  44        1       39 1
  45        1       40 1
  46        1       41 1
  47        4       42 1
  48        5       43 1
  49        6       44 1
  50        8       45 1
  51        8       46 1
  52       19       47 1
  53       20       48 1
  54       23       49 1
  55       24       50 1
  56       25       51 1
  57       27       52 1
  58       29       53 1
  59       29       54 1
  60       29       55 1
  61       32       56 1
  62       33       57 1
  63       34       58 1
  64       35       59 1
  65       37       60 1

@<TRIPOS>MOLECULE

  60   65
SMALL
USER_CHARGES
@<TRIPOS>ATOM
   1 C1          -4.8622     3.6138     5.4418 C.3          1    LIG   0.0000
   2 O2          -4.4589     3.8265     4.0970 O.3          1    LIG   0.0000
   3 C3          -3.9555     2.7460     3.4634 C.ar         1    LIG   0.0000
   4 C4          -3.8658     1.5340     4.1406 C.ar         1    LIG   0.0000
   5 C5          -3.3452     0.4277     3.4777 C.ar         1    LIG   0.0000
   6 C6          -2.9195     0.5233     2.1571 C.ar         1    LIG   0.0000
   7 C7          -3.0185     1.7449     1.4993 C.ar         1    LIG   0.0000
   8 C8          -2.5554     1.8599     0.0562 C.3          1    LIG   0.0000
   9 N9          -1.1314     2.2349     0.0259 N.pl3        1    LIG   0.0000
  10 C10         -0.6583     3.5101     0.0124 C.2          1    LIG   0.0000
  11 N11         -1.3547     4.5710     0.0182 N.2          1    LIG   0.0000
  12 C12         -0.6144     5.7236     0.0010 C.2          1    LIG   0.0000
  13 O13         -0.3065     6.2234    -1.0456 O.2          1    LIG   0.0000
  14 C14         -0.2026     6.3400     1.2484 C.2          1    LIG   0.0000
  15 N15          0.9229     7.0762     1.4548 N.2          1    LIG   0.0000
  16 N16          0.9347     7.4421     2.6649 N.2          1    LIG   0.0000
  17 N17         -0.1131     7.0033     3.3177 N.pl3        1    LIG   0.0000
  18 C18         -0.3999     7.2272     4.6696 C.ar         1    LIG   0.0000
  19 C19         -1.7092     7.4883     5.0596 C.ar         1    LIG   0.0000
  20 C20         -1.9834     7.7088     6.4053 C.ar         1    LIG   0.0000
  21 C21         -0.9724     7.6721     7.3604 C.ar         1    LIG   0.0000
  22 N22         -1.2314     7.8838     8.6592 N.ar         1    LIG   0.0000
  23 C23         -0.2599     7.8468     9.5837 C.ar         1    LIG   0.0000
  24 C24          1.0580     7.5866     9.2232 C.ar         1    LIG   0.0000
  25 C25          1.3536     7.3652     7.8826 C.ar         1    LIG   0.0000
  26 C26          0.3289     7.4080     6.9425 C.ar         1    LIG   0.0000
  27 C27          0.6298     7.1838     5.6036 C.ar         1    LIG   0.0000
  28 C28         -0.8651     6.2949     2.4325 C.2          1    LIG   0.0000
  29 C29         -2.1815     5.5891     2.7178 C.3          1    LIG   0.0000
  30 N30          0.7004     3.4417    -0.0139 N.pl3        1    LIG   0.0000
  31 C31          1.0674     2.1259    -0.0101 C.ar         1    LIG   0.0000
  32 C32          2.2935     1.4674    -0.0246 C.ar         1    LIG   0.0000
  33 C33          2.3784     0.0788    -0.0153 C.ar         1    LIG   0.0000
  34 C34          1.2095    -0.6754     0.0069 C.ar         1    LIG   0.0000
  35 C35         -0.0153    -0.0174     0.0218 C.ar         1    LIG   0.0000
  36 C36         -0.0774     1.3718     0.0148 C.ar         1    LIG   0.0000
  37 C37         -3.5355     2.8643     2.1429 C.ar         1    LIG   0.0000
  38 H            1.3247     4.2227    -0.0329 H            1    LIG   0.0000
  39 H           -5.2187     4.4674     5.8219 H            1    LIG   0.0000
  40 H           -5.5753     2.9133     5.4692 H            1    LIG   0.0000
  41 H           -4.0766     3.3111     5.9815 H            1    LIG   0.0000
  42 H           -4.1711     1.4594     5.0899 H            1    LIG   0.0000
  43 H           -3.2761    -0.4475     3.9566 H            1    LIG   0.0000
  44 H           -2.5468    -0.2763     1.6863 H            1    LIG   0.0000
  45 H           -2.6784     0.9808    -0.4044 H            1    LIG   0.0000
  46 H           -3.0945     2.5599    -0.4122 H            1    LIG   0.0000
  47 H           -2.4437     7.5170     4.3815 H            1    LIG   0.0000
  48 H           -2.9230     7.8970     6.6911 H            1    LIG   0.0000
  49 H           -0.4862     8.0084    10.5442 H            1    LIG   0.0000
  50 H            1.7794     7.5593     9.9151 H            1    LIG   0.0000
  51 H            2.2934     7.1771     7.5971 H            1    LIG   0.0000
  52 H            1.5692     6.9948     5.3175 H            1    LIG   0.0000
  53 H           -2.5112     5.1484     1.8829 H            1    LIG   0.0000
  54 H           -2.0423     4.8980     3.4270 H            1    LIG   0.0000
  55 H           -2.8567     6.2570     3.0311 H            1    LIG   0.0000
  56 H            3.1355     2.0066    -0.0421 H            1    LIG   0.0000
  57 H            3.2707    -0.3726    -0.0245 H            1    LIG   0.0000
  58 H            1.2496    -1.6746     0.0120 H            1    LIG   0.0000
  59 H           -0.8618    -0.5495     0.0378 H            1    LIG   0.0000
  60 H           -3.6040     3.7396     1.6641 H            1    LIG   0.0000
@<TRIPOS>BOND
   1        1        2 1
   2        2        3 1
   3        3        4 ar
   4        4        5 ar
   5        5        6 ar
   6        6        7 ar
   7        7        8 1
   8        8        9 1
   9        9       10 1
  10       10       11 2
  11       11       12 1
  12       12       13 2
  13       12       14 1
  14       14       15 1
  15       15       16 2
  16       16       17 1
  17       17       18 1
  18       18       19 ar
  19       19       20 ar
  20       20       21 ar
  21       21       22 ar
  22       22       23 ar
  23       23       24 ar
  24       24       25 ar
  25       25       26 ar
  26       26       21 ar
  27       26       27 ar
  28       27       18 ar
  29       17       28 1
  30       28       14 2
  31       28       29 1
  32       10       30 1
  33       30       31 1
  34       31       32 ar
  35       32       33 ar
  36       33       34 ar
  37       34       35 ar
  38       35       36 ar
  39       36       31 ar
  40       36        9 1
  41        7       37 ar
  42       37        3 ar
  43       30       38 1
  44        1       39 1
  45        1       40 1
  46        1       41 1
  47        4       42 1
  48        5       43 1
  49        6       44 1
  50        8       45 1
  51        8       46 1
  52       19       47 1
  53       20       48 1
  54       23       49 1
  55       24       50 1
  56       25       51 1
  57       27       52 1
  58       29       53 1
  59       29       54 1
  60       29       55 1
  61       32       56 1
  62       33       57 1
  63       34       58 1
  64       35       59 1
  65       37       60 1

@<TRIPOS>MOLECULE

  60   65
SMALL
USER_CHARGES
@<TRIPOS>ATOM
   1 C1          -4.8622     3.6138     5.4418 C.3          1    LIG   0.0000
   2 O2          -4.4589     3.8265     4.0970 O.3          1    LIG   0.0000
   3 C3          -3.9555     2.7460     3.4634 C.ar         1    LIG   0.0000
   4 C4          -3.8658     1.5340     4.1406 C.ar         1    LIG   0.0000
   5 C5          -3.3452     0.4277     3.4777 C.ar         1    LIG   0.0000
   6 C6          -2.9195     0.5233     2.1571 C.ar         1    LIG   0.0000
   7 C7          -3.0185     1.7449     1.4993 C.ar         1    LIG   0.0000
   8 C8          -2.5554     1.8599     0.0562 C.3          1    LIG   0.0000
   9 N9          -1.1314     2.2349     0.0259 N.pl3        1    LIG   0.0000
  10 C10         -0.6583     3.5101     0.0124 C.2          1    LIG   0.0000
  11 N11         -1.3547     4.5710     0.0182 N.2          1    LIG   0.0000
  12 C12         -0.6144     5.7236     0.0010 C.2          1    LIG   0.0000
  13 O13         -0.2738     6.2334     1.0326 O.2          1    LIG   0.0000
  14 C14         -0.2421     6.3280    -1.2645 C.2          1    LIG   0.0000
  15 N15          0.5021     5.7536    -2.2481 N.2          1    LIG   0.0000
  16 N16          0.6128     6.5870    -3.1923 N.2          1    LIG   0.0000
  17 N17         -0.0065     7.7106    -2.9267 N.pl3        1    LIG   0.0000
  18 C18         -0.0745     8.8351    -3.7579 C.ar         1    LIG   0.0000
  19 C19          1.0922     9.3506    -4.3123 C.ar         1    LIG   0.0000
  20 C20          1.0133    10.4679    -5.1371 C.ar         1    LIG   0.0000
  21 C21         -0.2087    11.0728    -5.4133 C.ar         1    LIG   0.0000
  22 N22         -0.2903    12.1501    -6.2082 N.ar         1    LIG   0.0000
  23 C23         -1.4669    12.7348    -6.4791 C.ar         1    LIG   0.0000
  24 C24         -2.6499    12.2403    -5.9401 C.ar         1    LIG   0.0000
  25 C25         -2.5927    11.1252    -5.1114 C.ar         1    LIG   0.0000
  26 C26         -1.3607    10.5357    -4.8458 C.ar         1    LIG   0.0000
  27 C27         -1.3096     9.4195    -4.0181 C.ar         1    LIG   0.0000
  28 C28         -0.5695     7.5729    -1.6958 C.2          1    LIG   0.0000
  29 C29         -1.3948     8.6111    -0.9519 C.3          1    LIG   0.0000
  30 N30          0.7004     3.4417    -0.0139 N.pl3        1    LIG   0.0000
  31 C31          1.0674     2.1259    -0.0101 C.ar         1    LIG   0.0000
  32 C32          2.2935     1.4674    -0.0246 C.ar         1    LIG   0.0000
  33 C33          2.3784     0.0788    -0.0153 C.ar         1    LIG   0.0000
  34 C34          1.2095    -0.6754     0.0069 C.ar         1    LIG   0.0000
  35 C35         -0.0153    -0.0174     0.0218 C.ar         1    LIG   0.0000
  36 C36         -0.0774     1.3718     0.0148 C.ar         1    LIG   0.0000
  37 C37         -3.5355     2.8643     2.1429 C.ar         1    LIG   0.0000
  38 H            1.3247     4.2227    -0.0329 H            1    LIG   0.0000
  39 H           -5.2187     4.4674     5.8219 H            1    LIG   0.0000
  40 H           -5.5753     2.9133     5.4692 H            1    LIG   0.0000
  41 H           -4.0766     3.3111     5.9815 H            1    LIG   0.0000
  42 H           -4.1711     1.4594     5.0899 H            1    LIG   0.0000
  43 H           -3.2761    -0.4475     3.9566 H            1    LIG   0.0000
  44 H           -2.5468    -0.2763     1.6863 H            1    LIG   0.0000
  45 H           -2.6784     0.9808    -0.4044 H            1    LIG   0.0000
  46 H           -3.0945     2.5599    -0.4122 H            1    LIG   0.0000
  47 H            1.9759     8.9238    -4.1206 H            1    LIG   0.0000
  48 H            1.8492    10.8426    -5.5383 H            1    LIG   0.0000
  49 H           -1.4937    13.5366    -7.0762 H            1    LIG   0.0000
  50 H           -3.5251    12.6785    -6.1447 H            1    LIG   0.0000
  51 H           -3.4287    10.7507    -4.7103 H            1    LIG   0.0000
  52 H           -2.1453     9.0440    -3.6174 H            1    LIG   0.0000
  53 H           -1.6806     8.2392    -0.0687 H            1    LIG   0.0000
  54 H           -0.8435     9.4324    -0.8051 H            1    LIG   0.0000
  55 H           -2.2030     8.8443    -1.4926 H            1    LIG   0.0000
  56 H            3.1355     2.0066    -0.0421 H            1    LIG   0.0000
  57 H            3.2707    -0.3726    -0.0245 H            1    LIG   0.0000
  58 H            1.2496    -1.6746     0.0120 H            1    LIG   0.0000
  59 H           -0.8618    -0.5495     0.0378 H            1    LIG   0.0000
  60 H           -3.6040     3.7396     1.6641 H            1    LIG   0.0000
@<TRIPOS>BOND
   1        1        2 1
   2        2        3 1
   3        3        4 ar
   4        4        5 ar
   5        5        6 ar
   6        6        7 ar
   7        7        8 1
   8        8        9 1
   9        9       10 1
  10       10       11 2
  11       11       12 1
  12       12       13 2
  13       12       14 1
  14       14       15 1
  15       15       16 2
  16       16       17 1
  17       17       18 1
  18       18       19 ar
  19       19       20 ar
  20       20       21 ar
  21       21       22 ar
  22       22       23 ar
  23       23       24 ar
  24       24       25 ar
  25       25       26 ar
  26       26       21 ar
  27       26       27 ar
  28       27       18 ar
  29       17       28 1
  30       28       14 2
  31       28       29 1
  32       10       30 1
  33       30       31 1
  34       31       32 ar
  35       32       33 ar
  36       33       34 ar
  37       34       35 ar
  38       35       36 ar
  39       36       31 ar
  40       36        9 1
  41        7       37 ar
  42       37        3 ar
  43       30       38 1
  44        1       39 1
  45        1       40 1
  46        1       41 1
  47        4       42 1
  48        5       43 1
  49        6       44 1
  50        8       45 1
  51        8       46 1
  52       19       47 1
  53       20       48 1
  54       23       49 1
  55       24       50 1
  56       25       51 1
  57       27       52 1
  58       29       53 1
  59       29       54 1
  60       29       55 1
  61       32       56 1
  62       33       57 1
  63       34       58 1
  64       35       59 1
  65       37       60 1

@<TRIPOS>MOLECULE

  60   65
SMALL
USER_CHARGES
@<TRIPOS>ATOM
   1 C1          -4.8622     3.6138     5.4418 C.3          1    LIG   0.0000
   2 O2          -4.4589     3.8265     4.0970 O.3          1    LIG   0.0000
   3 C3          -3.9555     2.7460     3.4634 C.ar         1    LIG   0.0000
   4 C4          -3.8658     1.5340     4.1406 C.ar         1    LIG   0.0000
   5 C5          -3.3452     0.4277     3.4777 C.ar         1    LIG   0.0000
   6 C6          -2.9195     0.5233     2.1571 C.ar         1    LIG   0.0000
   7 C7          -3.0185     1.7449     1.4993 C.ar         1    LIG   0.0000
   8 C8          -2.5554     1.8599     0.0562 C.3          1    LIG   0.0000
   9 N9          -1.1314     2.2349     0.0259 N.pl3        1    LIG   0.0000
  10 C10         -0.6583     3.5101     0.0124 C.2          1    LIG   0.0000
  11 N11         -1.3547     4.5710     0.0182 N.2          1    LIG   0.0000
  12 C12         -0.6144     5.7236     0.0010 C.2          1    LIG   0.0000
  13 O13         -0.2738     6.2334     1.0326 O.2          1    LIG   0.0000
  14 C14         -0.2421     6.3280    -1.2645 C.2          1    LIG   0.0000
  15 N15         -1.0913     6.7773    -2.2280 N.2          1    LIG   0.0000
  16 N16         -0.3963     7.2359    -3.1793 N.2          1    LIG   0.0000
  17 N17          0.8876     7.1313    -2.9403 N.pl3        1    LIG   0.0000
  18 C18          1.9237     7.5397    -3.7887 C.ar         1    LIG   0.0000
  19 C19          1.9137     7.1472    -5.1229 C.ar         1    LIG   0.0000
  20 C20          2.9476     7.5589    -5.9573 C.ar         1    LIG   0.0000
  21 C21          3.9849     8.3529    -5.4786 C.ar         1    LIG   0.0000
  22 N22          4.9841     8.7529    -6.2790 N.ar         1    LIG   0.0000
  23 C23          5.9849     9.5206    -5.8221 C.ar         1    LIG   0.0000
  24 C24          6.0203     9.9296    -4.4931 C.ar         1    LIG   0.0000
  25 C25          4.9971     9.5273    -3.6418 C.ar         1    LIG   0.0000
  26 C26          3.9697     8.7318    -4.1392 C.ar         1    LIG   0.0000
  27 C27          2.9479     8.3341    -3.2841 C.ar         1    LIG   0.0000
  28 C28          1.0183     6.5551    -1.7148 C.2          1    LIG   0.0000
  29 C29          2.3187     6.2266    -0.9982 C.3          1    LIG   0.0000
  30 N30          0.7004     3.4417    -0.0139 N.pl3        1    LIG   0.0000
  31 C31          1.0674     2.1259    -0.0101 C.ar         1    LIG   0.0000
  32 C32          2.2935     1.4674    -0.0246 C.ar         1    LIG   0.0000
  33 C33          2.3784     0.0788    -0.0153 C.ar         1    LIG   0.0000
  34 C34          1.2095    -0.6754     0.0069 C.ar         1    LIG   0.0000
  35 C35         -0.0153    -0.0174     0.0218 C.ar         1    LIG   0.0000
  36 C36         -0.0774     1.3718     0.0148 C.ar         1    LIG   0.0000
  37 C37         -3.5355     2.8643     2.1429 C.ar         1    LIG   0.0000
  38 H            1.3247     4.2227    -0.0329 H            1    LIG   0.0000
  39 H           -5.2187     4.4674     5.8219 H            1    LIG   0.0000
  40 H           -5.5753     2.9133     5.4692 H            1    LIG   0.0000
  41 H           -4.0766     3.3111     5.9815 H            1    LIG   0.0000
  42 H           -4.1711     1.4594     5.0899 H            1    LIG   0.0000
  43 H           -3.2761    -0.4475     3.9566 H            1    LIG   0.0000
  44 H           -2.5468    -0.2763     1.6863 H            1    LIG   0.0000
  45 H           -2.6784     0.9808    -0.4044 H            1    LIG   0.0000
  46 H           -3.0945     2.5599    -0.4122 H            1    LIG   0.0000
  47 H            1.1730     6.5766    -5.4777 H            1    LIG   0.0000
  48 H            2.9453     7.2795    -6.9175 H            1    LIG   0.0000
  49 H            6.7148     9.8023    -6.4449 H            1    LIG   0.0000
  50 H            6.7676    10.5023    -4.1562 H            1    LIG   0.0000
  51 H            4.9997     9.8069    -2.6817 H            1    LIG   0.0000
  52 H            2.9494     8.6140    -2.3241 H            1    LIG   0.0000
  53 H            2.1150     5.8083    -0.1130 H            1    LIG   0.0000
  54 H            2.8532     5.5890    -1.5531 H            1    LIG   0.0000
  55 H            2.8430     7.0664    -0.8574 H            1    LIG   0.0000
  56 H            3.1355     2.0066    -0.0421 H            1    LIG   0.0000
  57 H            3.2707    -0.3726    -0.0245 H            1    LIG   0.0000
  58 H            1.2496    -1.6746     0.0120 H            1    LIG   0.0000
  59 H           -0.8618    -0.5495     0.0378 H            1    LIG   0.0000
  60 H           -3.6040     3.7396     1.6641 H            1    LIG   0.0000
@<TRIPOS>BOND
   1        1        2 1
   2        2        3 1
   3        3        4 ar
   4        4        5 ar
   5        5        6 ar
   6        6        7 ar
   7        7        8 1
   8        8        9 1
   9        9       10 1
  10       10       11 2
  11       11       12 1
  12       12       13 2
  13       12       14 1
  14       14       15 1
  15       15       16 2
  16       16       17 1
  17       17       18 1
  18       18       19 ar
  19       19       20 ar
  20       20       21 ar
  21       21       22 ar
  22       22       23 ar
  23       23       24 ar
  24       24       25 ar
  25       25       26 ar
  26       26       21 ar
  27       26       27 ar
  28       27       18 ar
  29       17       28 1
  30       28       14 2
  31       28       29 1
  32       10       30 1
  33       30       31 1
  34       31       32 ar
  35       32       33 ar
  36       33       34 ar
  37       34       35 ar
  38       35       36 ar
  39       36       31 ar
  40       36        9 1
  41        7       37 ar
  42       37        3 ar
  43       30       38 1
  44        1       39 1
  45        1       40 1
  46        1       41 1
  47        4       42 1
  48        5       43 1
  49        6       44 1
  50        8       45 1
  51        8       46 1
  52       19       47 1
  53       20       48 1
  54       23       49 1
  55       24       50 1
  56       25       51 1
  57       27       52 1
  58       29       53 1
  59       29       54 1
  60       29       55 1
  61       32       56 1
  62       33       57 1
  63       34       58 1
  64       35       59 1
  65       37       60 1

@<TRIPOS>MOLECULE

  60   65
SMALL
USER_CHARGES
@<TRIPOS>ATOM
   1 C1          -4.5116     5.0178     3.3261 C.3          1    LIG   0.0000
   2 O2          -4.4589     3.8265     4.0970 O.3          1    LIG   0.0000
   3 C3          -3.9555     2.7460     3.4634 C.ar         1    LIG   0.0000
   4 C4          -3.8658     1.5340     4.1406 C.ar         1    LIG   0.0000
   5 C5          -3.3452     0.4277     3.4777 C.ar         1    LIG   0.0000
   6 C6          -2.9195     0.5233     2.1571 C.ar         1    LIG   0.0000
   7 C7          -3.0185     1.7449     1.4993 C.ar         1    LIG   0.0000
   8 C8          -2.5554     1.8599     0.0562 C.3          1    LIG   0.0000
   9 N9          -1.1314     2.2349     0.0259 N.pl3        1    LIG   0.0000
  10 C10         -0.6583     3.5101     0.0124 C.2          1    LIG   0.0000
  11 N11         -1.3547     4.5710     0.0182 N.2          1    LIG   0.0000
  12 C12         -0.6144     5.7236     0.0010 C.2          1    LIG   0.0000
  13 O13         -0.3065     6.2234    -1.0456 O.2          1    LIG   0.0000
  14 C14         -0.2026     6.3400     1.2484 C.2          1    LIG   0.0000
  15 N15         -1.0211     6.7987     2.2337 N.2          1    LIG   0.0000
  16 N16         -0.2966     7.2658     3.1586 N.2          1    LIG   0.0000
  17 N17          0.9790     7.1641     2.8777 N.pl3        1    LIG   0.0000
  18 C18          2.0410     7.5873     3.6858 C.ar         1    LIG   0.0000
  19 C19          3.1453     8.2003     3.1032 C.ar         1    LIG   0.0000
  20 C20          4.1947     8.6173     3.9152 C.ar         1    LIG   0.0000
  21 C21          4.1553     8.4309     5.2933 C.ar         1    LIG   0.0000
  22 N22          5.1644     8.8314     6.0809 N.ar         1    LIG   0.0000
  23 C23          5.1293     8.6558     7.4104 C.ar         1    LIG   0.0000
  24 C24          4.0376     8.0474     8.0208 C.ar         1    LIG   0.0000
  25 C25          2.9786     7.6215     7.2266 C.ar         1    LIG   0.0000
  26 C26          3.0378     7.8153     5.8502 C.ar         1    LIG   0.0000
  27 C27          1.9752     7.3893     5.0610 C.ar         1    LIG   0.0000
  28 C28          1.0714     6.5690     1.6577 C.2          1    LIG   0.0000
  29 C29          2.3486     6.2345     0.9033 C.3          1    LIG   0.0000
  30 N30          0.7004     3.4417    -0.0139 N.pl3        1    LIG   0.0000
  31 C31          1.0674     2.1259    -0.0101 C.ar         1    LIG   0.0000
  32 C32          2.2935     1.4674    -0.0246 C.ar         1    LIG   0.0000
  33 C33          2.3784     0.0788    -0.0153 C.ar         1    LIG   0.0000
  34 C34          1.2095    -0.6754     0.0069 C.ar         1    LIG   0.0000
  35 C35         -0.0153    -0.0174     0.0218 C.ar         1    LIG   0.0000
  36 C36         -0.0774     1.3718     0.0148 C.ar         1    LIG   0.0000
  37 C37         -3.5355     2.8643     2.1429 C.ar         1    LIG   0.0000
  38 H            1.3247     4.2227    -0.0329 H            1    LIG   0.0000
  39 H           -4.8968     5.7563     3.8795 H            1    LIG   0.0000
  40 H           -3.5882     5.2670     3.0340 H            1    LIG   0.0000
  41 H           -5.0868     4.8692     2.5217 H            1    LIG   0.0000
  42 H           -4.1711     1.4594     5.0899 H            1    LIG   0.0000
  43 H           -3.2761    -0.4475     3.9566 H            1    LIG   0.0000
  44 H           -2.5468    -0.2763     1.6863 H            1    LIG   0.0000
  45 H           -2.6784     0.9808    -0.4044 H            1    LIG   0.0000
  46 H           -3.0945     2.5599    -0.4122 H            1    LIG   0.0000
  47 H            3.1841     8.3393     2.1136 H            1    LIG   0.0000
  48 H            4.9910     9.0586     3.5014 H            1    LIG   0.0000
  49 H            5.8979     8.9664     7.9698 H            1    LIG   0.0000
  50 H            4.0147     7.9188     9.0122 H            1    LIG   0.0000
  51 H            2.1824     7.1802     7.6407 H            1    LIG   0.0000
  52 H            1.1783     6.9488     5.4744 H            1    LIG   0.0000
  53 H            2.1174     5.8014     0.0321 H            1    LIG   0.0000
  54 H            2.8641     7.0741     0.7318 H            1    LIG   0.0000
  55 H            2.9042     5.6080     1.4499 H            1    LIG   0.0000
  56 H            3.1355     2.0066    -0.0421 H            1    LIG   0.0000
  57 H            3.2707    -0.3726    -0.0245 H            1    LIG   0.0000
  58 H            1.2496    -1.6746     0.0120 H            1    LIG   0.0000
  59 H           -0.8618    -0.5495     0.0378 H            1    LIG   0.0000
  60 H           -3.6040     3.7396     1.6641 H            1    LIG   0.0000
@<TRIPOS>BOND
   1        1        2 1
   2        2        3 1
   3        3        4 ar
   4        4        5 ar
   5        5        6 ar
   6        6        7 ar
   7        7        8 1
   8        8        9 1
   9        9       10 1
  10       10       11 2
  11       11       12 1
  12       12       13 2
  13       12       14 1
  14       14       15 1
  15       15       16 2
  16       16       17 1
  17       17       18 1
  18       18       19 ar
  19       19       20 ar
  20       20       21 ar
  21       21       22 ar
  22       22       23 ar
  23       23       24 ar
  24       24       25 ar
  25       25       26 ar
  26       26       21 ar
  27       26       27 ar
  28       27       18 ar
  29       17       28 1
  30       28       14 2
  31       28       29 1
  32       10       30 1
  33       30       31 1
  34       31       32 ar
  35       32       33 ar
  36       33       34 ar
  37       34       35 ar
  38       35       36 ar
  39       36       31 ar
  40       36        9 1
  41        7       37 ar
  42       37        3 ar
  43       30       38 1
  44        1       39 1
  45        1       40 1
  46        1       41 1
  47        4       42 1
  48        5       43 1
  49        6       44 1
  50        8       45 1
  51        8       46 1
  52       19       47 1
  53       20       48 1
  54       23       49 1
  55       24       50 1
  56       25       51 1
  57       27       52 1
  58       29       53 1
  59       29       54 1
  60       29       55 1
  61       32       56 1
  62       33       57 1
  63       34       58 1
  64       35       59 1
  65       37       60 1

@<TRIPOS>MOLECULE

  60   65
SMALL
USER_CHARGES
@<TRIPOS>ATOM
   1 C1          -4.5116     5.0178     3.3261 C.3          1    LIG   0.0000
   2 O2          -4.4589     3.8265     4.0970 O.3          1    LIG   0.0000
   3 C3          -3.9555     2.7460     3.4634 C.ar         1    LIG   0.0000
   4 C4          -3.8658     1.5340     4.1406 C.ar         1    LIG   0.0000
   5 C5          -3.3452     0.4277     3.4777 C.ar         1    LIG   0.0000
   6 C6          -2.9195     0.5233     2.1571 C.ar         1    LIG   0.0000
   7 C7          -3.0185     1.7449     1.4993 C.ar         1    LIG   0.0000
   8 C8          -2.5554     1.8599     0.0562 C.3          1    LIG   0.0000
   9 N9          -1.1314     2.2349     0.0259 N.pl3        1    LIG   0.0000
  10 C10         -0.6583     3.5101     0.0124 C.2          1    LIG   0.0000
  11 N11         -1.3547     4.5710     0.0182 N.2          1    LIG   0.0000
  12 C12         -0.6144     5.7236     0.0010 C.2          1    LIG   0.0000
  13 O13         -0.2738     6.2334     1.0326 O.2          1    LIG   0.0000
  14 C14         -0.2421     6.3280    -1.2645 C.2          1    LIG   0.0000
  15 N15         -0.0438     7.6530    -1.5017 N.2          1    LIG   0.0000
  16 N16          0.2676     7.7903    -2.7192 N.2          1    LIG   0.0000
  17 N17          0.2957     6.6414    -3.3484 N.pl3        1    LIG   0.0000
  18 C18          0.6003     6.4452    -4.7006 C.ar         1    LIG   0.0000
  19 C19          1.3771     5.3550    -5.0783 C.ar         1    LIG   0.0000
  20 C20          1.6734     5.1690    -6.4245 C.ar         1    LIG   0.0000
  21 C21          1.2065     6.0528    -7.3922 C.ar         1    LIG   0.0000
  22 N22          1.4891     5.8779    -8.6916 N.ar         1    LIG   0.0000
  23 C23          1.0388     6.7263    -9.6282 C.ar         1    LIG   0.0000
  24 C24          0.2588     7.8241    -9.2802 C.ar         1    LIG   0.0000
  25 C25         -0.0474     8.0292    -7.9394 C.ar         1    LIG   0.0000
  26 C26          0.4306     7.1350    -6.9866 C.ar         1    LIG   0.0000
  27 C27          0.1197     7.3437    -5.6474 C.ar         1    LIG   0.0000
  28 C28         -0.0236     5.6818    -2.4383 C.2          1    LIG   0.0000
  29 C29         -0.1215     4.1855    -2.6908 C.3          1    LIG   0.0000
  30 N30          0.7004     3.4417    -0.0139 N.pl3        1    LIG   0.0000
  31 C31          1.0674     2.1259    -0.0101 C.ar         1    LIG   0.0000
  32 C32          2.2935     1.4674    -0.0246 C.ar         1    LIG   0.0000
  33 C33          2.3784     0.0788    -0.0153 C.ar         1    LIG   0.0000
  34 C34          1.2095    -0.6754     0.0069 C.ar         1    LIG   0.0000
  35 C35         -0.0153    -0.0174     0.0218 C.ar         1    LIG   0.0000
  36 C36         -0.0774     1.3718     0.0148 C.ar         1    LIG   0.0000
  37 C37         -3.5355     2.8643     2.1429 C.ar         1    LIG   0.0000
  38 H            1.3247     4.2227    -0.0329 H            1    LIG   0.0000
  39 H           -4.8968     5.7563     3.8795 H            1    LIG   0.0000
  40 H           -3.5882     5.2670     3.0340 H            1    LIG   0.0000
  41 H           -5.0868     4.8692     2.5217 H            1    LIG   0.0000
  42 H           -4.1711     1.4594     5.0899 H            1    LIG   0.0000
  43 H           -3.2761    -0.4475     3.9566 H            1    LIG   0.0000
  44 H           -2.5468    -0.2763     1.6863 H            1    LIG   0.0000
  45 H           -2.6784     0.9808    -0.4044 H            1    LIG   0.0000
  46 H           -3.0945     2.5599    -0.4122 H            1    LIG   0.0000
  47 H            1.7179     4.7134    -4.3911 H            1    LIG   0.0000
  48 H            2.2315     4.3868    -6.7015 H            1    LIG   0.0000
  49 H            1.2668     6.5675   -10.5888 H            1    LIG   0.0000
  50 H           -0.0756     8.4541    -9.9811 H            1    LIG   0.0000
  51 H           -0.6055     8.8114    -7.6627 H            1    LIG   0.0000
  52 H           -0.4391     8.1253    -5.3701 H            1    LIG   0.0000
  53 H           -0.3738     3.7201    -1.8424 H            1    LIG   0.0000
  54 H           -0.8175     4.0097    -3.3870 H            1    LIG   0.0000
  55 H            0.7623     3.8426    -3.0089 H            1    LIG   0.0000
  56 H            3.1355     2.0066    -0.0421 H            1    LIG   0.0000
  57 H            3.2707    -0.3726    -0.0245 H            1    LIG   0.0000
  58 H            1.2496    -1.6746     0.0120 H            1    LIG   0.0000
  59 H           -0.8618    -0.5495     0.0378 H            1    LIG   0.0000
  60 H           -3.6040     3.7396     1.6641 H            1    LIG   0.0000
@<TRIPOS>BOND
   1        1        2 1
   2        2        3 1
   3        3        4 ar
   4        4        5 ar
   5        5        6 ar
   6        6        7 ar
   7        7        8 1
   8        8        9 1
   9        9       10 1
  10       10       11 2
  11       11       12 1
  12       12       13 2
  13       12       14 1
  14       14       15 1
  15       15       16 2
  16       16       17 1
  17       17       18 1
  18       18       19 ar
  19       19       20 ar
  20       20       21 ar
  21       21       22 ar
  22       22       23 ar
  23       23       24 ar
  24       24       25 ar
  25       25       26 ar
  26       26       21 ar
  27       26       27 ar
  28       27       18 ar
  29       17       28 1
  30       28       14 2
  31       28       29 1
  32       10       30 1
  33       30       31 1
  34       31       32 ar
  35       32       33 ar
  36       33       34 ar
  37       34       35 ar
  38       35       36 ar
  39       36       31 ar
  40       36        9 1
  41        7       37 ar
  42       37        3 ar
  43       30       38 1
  44        1       39 1
  45        1       40 1
  46        1       41 1
  47        4       42 1
  48        5       43 1
  49        6       44 1
  50        8       45 1
  51        8       46 1
  52       19       47 1
  53       20       48 1
  54       23       49 1
  55       24       50 1
  56       25       51 1
  57       27       52 1
  58       29       53 1
  59       29       54 1
  60       29       55 1
  61       32       56 1
  62       33       57 1
  63       34       58 1
  64       35       59 1
  65       37       60 1

