@<TRIPOS>MOLECULE
*****
 60 65 0 0 0
SMALL
USER_CHARGES

@<TRIPOS>ATOM
      1 C1         -3.9113   -0.8588   -5.2517 C.3     1  LIG1        0.0000
      2 O2         -3.4025   -0.8313   -3.9263 O.2     1  LIG1        0.0000
      3 C3         -3.4717    0.3636   -3.3019 C.3     1  LIG1        0.0000
      4 C4         -4.0173    1.4555   -3.9693 C.3     1  LIG1        0.0000
      5 C5         -4.0831    2.6816   -3.3162 C.3     1  LIG1        0.0000
      6 C6         -3.6134    2.8218   -2.0146 C.3     1  LIG1        0.0000
      7 C7         -3.0719    1.7167   -1.3662 C.3     1  LIG1        0.0000
      8 C8         -2.5554    1.8599    0.0562 C.3     1  LIG1        0.0000
      9 N9         -1.1314    2.2349    0.0259 N.pl3   1  LIG1        0.0000
     10 C10        -0.6583    3.5101    0.0124 C.2     1  LIG1        0.0000
     11 N11        -1.3547    4.5710    0.0182 N.am    1  LIG1        0.0000
     12 C12        -0.6144    5.7236    0.0010 C.2     1  LIG1        0.0000
     13 O13        -0.3065    6.2234   -1.0456 O.2     1  LIG1        0.0000
     14 C14        -0.2026    6.3400    1.2484 C.2     1  LIG1        0.0000
     15 N15         0.5723    5.7751    2.2136 N.2     1  LIG1        0.0000
     16 N16         0.7131    6.6177    3.1455 N.2     1  LIG1        0.0000
     17 N17         0.0805    7.7366    2.8914 N.pl3   1  LIG1        0.0000
     18 C18         0.0324    8.8663    3.7168 C.3     1  LIG1        0.0000
     19 C19        -0.3023    8.7222    5.0591 C.3     1  LIG1        0.0000
     20 C20        -0.3468    9.8511    5.8705 C.3     1  LIG1        0.0000
     21 C21        -0.0629   11.1142    5.3612 C.3     1  LIG1        0.0000
     22 N22        -0.1041   12.2059    6.1393 N.pl3   1  LIG1        0.0000
     23 C23         0.1714   13.4253    5.6527 C.3     1  LIG1        0.0000
     24 C24         0.5106   13.5995    4.3151 C.3     1  LIG1        0.0000
     25 C25         0.5589   12.4840    3.4864 C.3     1  LIG1        0.0000
     26 C26         0.2699   11.2296    4.0144 C.3     1  LIG1        0.0000
     27 C27         0.3217   10.1172    3.1818 C.3     1  LIG1        0.0000
     28 C28        -0.5144    7.5900    1.6767 C.2     1  LIG1        0.0000
     29 C29        -1.3638    8.6207    0.9496 C.3     1  LIG1        0.0000
     30 N30         0.7004    3.4417   -0.0139 N.pl3   1  LIG1        0.0000
     31 C31         1.0674    2.1259   -0.0101 C.3     1  LIG1        0.0000
     32 C32         2.2935    1.4674   -0.0246 C.3     1  LIG1        0.0000
     33 C33         2.3784    0.0788   -0.0153 C.3     1  LIG1        0.0000
     34 C34         1.2095   -0.6754    0.0069 C.3     1  LIG1        0.0000
     35 C35        -0.0153   -0.0174    0.0218 C.3     1  LIG1        0.0000
     36 C36        -0.0774    1.3718    0.0148 C.3     1  LIG1        0.0000
     37 C37        -2.9958    0.4812   -2.0004 C.3     1  LIG1        0.0000
     38 H           1.3247    4.2227   -0.0329 H       1  LIG1        0.0000
     39 H          -3.8161   -1.7811   -5.6262 H       1  LIG1        0.0000
     40 H          -4.8773   -0.6005   -5.2434 H       1  LIG1        0.0000
     41 H          -3.3988   -0.2142   -5.8189 H       1  LIG1        0.0000
     42 H          -4.3572    1.3602   -4.9050 H       1  LIG1        0.0000
     43 H          -4.4730    3.4723   -3.7883 H       1  LIG1        0.0000
     44 H          -3.6644    3.7062   -1.5506 H       1  LIG1        0.0000
     45 H          -3.0769    2.5692    0.5304 H       1  LIG1        0.0000
     46 H          -2.6608    0.9901    0.5382 H       1  LIG1        0.0000
     47 H          -0.5082    7.8190    5.4358 H       1  LIG1        0.0000
     48 H          -0.5869    9.7531    6.8363 H       1  LIG1        0.0000
     49 H           0.1324   14.2193    6.2595 H       1  LIG1        0.0000
     50 H           0.7159   14.5100    3.9561 H       1  LIG1        0.0000
     51 H           0.7990   12.5823    2.5207 H       1  LIG1        0.0000
     52 H           0.5626   10.2146    2.2161 H       1  LIG1        0.0000
     53 H          -1.6713    8.2429    0.0763 H       1  LIG1        0.0000
     54 H          -2.1583    8.8533    1.5105 H       1  LIG1        0.0000
     55 H          -0.8202    9.4435    0.7840 H       1  LIG1        0.0000
     56 H           3.1355    2.0066   -0.0421 H       1  LIG1        0.0000
     57 H           3.2707   -0.3726   -0.0245 H       1  LIG1        0.0000
     58 H           1.2496   -1.6746    0.0120 H       1  LIG1        0.0000
     59 H          -0.8618   -0.5495    0.0378 H       1  LIG1        0.0000
     60 H          -2.6054   -0.3093   -1.5285 H       1  LIG1        0.0000
@<TRIPOS>BOND
     1     1     2    1
     2     2     3    1
     3     3     4   ar
     4     4     5   ar
     5     5     6   ar
     6     6     7   ar
     7     7     8    1
     8     8     9    1
     9     9    10    1
    10    10    11    2
    11    11    12    1
    12    12    13    2
    13    12    14    1
    14    14    15    1
    15    15    16    2
    16    16    17    1
    17    17    18    1
    18    18    19   ar
    19    19    20   ar
    20    20    21   ar
    21    21    22   ar
    22    22    23   ar
    23    23    24   ar
    24    24    25   ar
    25    25    26   ar
    26    26    21   ar
    27    26    27   ar
    28    27    18   ar
    29    17    28    1
    30    28    14    2
    31    28    29    1
    32    10    30    1
    33    30    31    1
    34    31    32   ar
    35    32    33   ar
    36    33    34   ar
    37    34    35   ar
    38    35    36   ar
    39    36    31   ar
    40    36     9    1
    41     7    37   ar
    42    37     3   ar
    43    30    38    1
    44     1    39    1
    45     1    40    1
    46     1    41    1
    47     4    42    1
    48     5    43    1
    49     6    44    1
    50     8    45    1
    51     8    46    1
    52    19    47    1
    53    20    48    1
    54    23    49    1
    55    24    50    1
    56    25    51    1
    57    27    52    1
    58    29    53    1
    59    29    54    1
    60    29    55    1
    61    32    56    1
    62    33    57    1
    63    34    58    1
    64    35    59    1
    65    37    60    1
