@<TRIPOS>MOLECULE
*****
 60 65 0 0 0
SMALL
USER_CHARGES

@<TRIPOS>ATOM
      1 C1         -5.0626    3.5082   -5.2730 C.3     1  LIG1        0.0000
      2 O2         -4.6091    3.7473   -3.9488 O.2     1  LIG1        0.0000
      3 C3         -4.0823    2.6792   -3.3131 C.3     1  LIG1        0.0000
      4 C4         -4.0173    1.4541   -3.9692 C.3     1  LIG1        0.0000
      5 C5         -3.4728    0.3606   -3.3043 C.3     1  LIG1        0.0000
      6 C6         -2.9972    0.4823   -2.0030 C.3     1  LIG1        0.0000
      7 C7         -3.0719    1.7167   -1.3662 C.3     1  LIG1        0.0000
      8 C8         -2.5554    1.8599    0.0562 C.3     1  LIG1        0.0000
      9 N9         -1.1314    2.2349    0.0259 N.pl3   1  LIG1        0.0000
     10 C10        -0.6583    3.5101    0.0124 C.2     1  LIG1        0.0000
     11 N11        -1.3547    4.5710    0.0182 N.am    1  LIG1        0.0000
     12 C12        -0.6144    5.7236    0.0010 C.2     1  LIG1        0.0000
     13 O13        -0.2738    6.2334    1.0326 O.2     1  LIG1        0.0000
     14 C14        -0.2421    6.3280   -1.2645 C.2     1  LIG1        0.0000
     15 N15         0.5021    5.7536   -2.2481 N.2     1  LIG1        0.0000
     16 N16         0.6128    6.5870   -3.1923 N.2     1  LIG1        0.0000
     17 N17        -0.0065    7.7106   -2.9267 N.pl3   1  LIG1        0.0000
     18 C18        -0.0745    8.8351   -3.7579 C.3     1  LIG1        0.0000
     19 C19        -1.2656    9.5469   -3.8538 C.3     1  LIG1        0.0000
     20 C20        -1.3223   10.6628   -4.6821 C.3     1  LIG1        0.0000
     21 C21        -0.2111   11.0742   -5.4112 C.3     1  LIG1        0.0000
     22 N22        -0.2603   12.1497   -6.2112 N.pl3   1  LIG1        0.0000
     23 C23         0.8095   12.5512   -6.9140 C.3     1  LIG1        0.0000
     24 C24         2.0140   11.8599   -6.8365 C.3     1  LIG1        0.0000
     25 C25         2.0913   10.7403   -6.0156 C.3     1  LIG1        0.0000
     26 C26         0.9684   10.3439   -5.2960 C.3     1  LIG1        0.0000
     27 C27         1.0518    9.2248   -4.4749 C.3     1  LIG1        0.0000
     28 C28        -0.5695    7.5729   -1.6958 C.2     1  LIG1        0.0000
     29 C29        -1.3948    8.6111   -0.9519 C.3     1  LIG1        0.0000
     30 N30         0.7004    3.4417   -0.0139 N.pl3   1  LIG1        0.0000
     31 C31         1.0674    2.1259   -0.0101 C.3     1  LIG1        0.0000
     32 C32         2.2935    1.4674   -0.0246 C.3     1  LIG1        0.0000
     33 C33         2.3784    0.0788   -0.0153 C.3     1  LIG1        0.0000
     34 C34         1.2095   -0.6754    0.0069 C.3     1  LIG1        0.0000
     35 C35        -0.0153   -0.0174    0.0218 C.3     1  LIG1        0.0000
     36 C36        -0.0774    1.3718    0.0148 C.3     1  LIG1        0.0000
     37 C37        -3.6129    2.8234   -2.0119 C.3     1  LIG1        0.0000
     38 H           1.3247    4.2227   -0.0329 H       1  LIG1        0.0000
     39 H          -5.4330    4.3543   -5.6563 H       1  LIG1        0.0000
     40 H          -4.2979    3.1941   -5.8357 H       1  LIG1        0.0000
     41 H          -5.7763    2.8079   -5.2596 H       1  LIG1        0.0000
     42 H          -4.3571    1.3611   -4.9051 H       1  LIG1        0.0000
     43 H          -3.4227   -0.5242   -3.7676 H       1  LIG1        0.0000
     44 H          -2.6063   -0.3079   -1.5310 H       1  LIG1        0.0000
     45 H          -3.0769    2.5692    0.5304 H       1  LIG1        0.0000
     46 H          -2.6608    0.9901    0.5382 H       1  LIG1        0.0000
     47 H          -2.0705    9.2602   -3.3342 H       1  LIG1        0.0000
     48 H          -2.1762   11.1782   -4.7548 H       1  LIG1        0.0000
     49 H           0.7402   13.3577   -7.5010 H       1  LIG1        0.0000
     50 H           2.8096   12.1625   -7.3614 H       1  LIG1        0.0000
     51 H           2.9453   10.2251   -5.9431 H       1  LIG1        0.0000
     52 H           1.9057    8.7097   -4.4013 H       1  LIG1        0.0000
     53 H          -1.6806    8.2392   -0.0687 H       1  LIG1        0.0000
     54 H          -0.8435    9.4324   -0.8051 H       1  LIG1        0.0000
     55 H          -2.2030    8.8443   -1.4926 H       1  LIG1        0.0000
     56 H           3.1355    2.0066   -0.0421 H       1  LIG1        0.0000
     57 H           3.2707   -0.3726   -0.0245 H       1  LIG1        0.0000
     58 H           1.2496   -1.6746    0.0120 H       1  LIG1        0.0000
     59 H          -0.8618   -0.5495    0.0378 H       1  LIG1        0.0000
     60 H          -3.6636    3.7081   -1.5484 H       1  LIG1        0.0000
@<TRIPOS>BOND
     1     1     2    1
     2     2     3    1
     3     3     4   ar
     4     4     5   ar
     5     5     6   ar
     6     6     7   ar
     7     7     8    1
     8     8     9    1
     9     9    10    1
    10    10    11    2
    11    11    12    1
    12    12    13    2
    13    12    14    1
    14    14    15    1
    15    15    16    2
    16    16    17    1
    17    17    18    1
    18    18    19   ar
    19    19    20   ar
    20    20    21   ar
    21    21    22   ar
    22    22    23   ar
    23    23    24   ar
    24    24    25   ar
    25    25    26   ar
    26    26    21   ar
    27    26    27   ar
    28    27    18   ar
    29    17    28    1
    30    28    14    2
    31    28    29    1
    32    10    30    1
    33    30    31    1
    34    31    32   ar
    35    32    33   ar
    36    33    34   ar
    37    34    35   ar
    38    35    36   ar
    39    36    31   ar
    40    36     9    1
    41     7    37   ar
    42    37     3   ar
    43    30    38    1
    44     1    39    1
    45     1    40    1
    46     1    41    1
    47     4    42    1
    48     5    43    1
    49     6    44    1
    50     8    45    1
    51     8    46    1
    52    19    47    1
    53    20    48    1
    54    23    49    1
    55    24    50    1
    56    25    51    1
    57    27    52    1
    58    29    53    1
    59    29    54    1
    60    29    55    1
    61    32    56    1
    62    33    57    1
    63    34    58    1
    64    35    59    1
    65    37    60    1
