@<TRIPOS>MOLECULE
*****
 60 65 0 0 0
SMALL
USER_CHARGES

@<TRIPOS>ATOM
      1 C1         -3.7122   -0.7535    5.4632 C.3     1  LIG1        0.0000
      2 O2         -3.2527   -0.7521    4.1196 O.2     1  LIG1        0.0000
      3 C3         -3.3458    0.4302    3.4747 C.3     1  LIG1        0.0000
      4 C4         -3.8665    1.5353    4.1404 C.3     1  LIG1        0.0000
      5 C5         -3.9579    2.7481    3.4659 C.3     1  LIG1        0.0000
      6 C6         -3.5361    2.8627    2.1455 C.3     1  LIG1        0.0000
      7 C7         -3.0185    1.7449    1.4993 C.3     1  LIG1        0.0000
      8 C8         -2.5554    1.8599    0.0562 C.3     1  LIG1        0.0000
      9 N9         -1.1314    2.2349    0.0259 N.pl3   1  LIG1        0.0000
     10 C10        -0.6583    3.5101    0.0124 C.2     1  LIG1        0.0000
     11 N11        -1.3547    4.5710    0.0182 N.am    1  LIG1        0.0000
     12 C12        -0.6144    5.7236    0.0010 C.2     1  LIG1        0.0000
     13 O13        -0.2738    6.2334    1.0326 O.2     1  LIG1        0.0000
     14 C14        -0.2421    6.3280   -1.2645 C.2     1  LIG1        0.0000
     15 N15         0.8762    7.0619   -1.5133 N.2     1  LIG1        0.0000
     16 N16         0.8502    7.4157   -2.7268 N.2     1  LIG1        0.0000
     17 N17        -0.2205    6.9759   -3.3405 N.pl3   1  LIG1        0.0000
     18 C18        -0.5534    7.1930   -4.6829 C.3     1  LIG1        0.0000
     19 C19        -0.5162    8.4839   -5.1993 C.3     1  LIG1        0.0000
     20 C20        -0.8483    8.6886   -6.5344 C.3     1  LIG1        0.0000
     21 C21        -1.2148    7.6266   -7.3551 C.3     1  LIG1        0.0000
     22 N22        -1.5357    7.8184   -8.6431 N.pl3   1  LIG1        0.0000
     23 C23        -1.8873    6.7968   -9.4385 C.3     1  LIG1        0.0000
     24 C24        -1.9318    5.4953   -8.9499 C.3     1  LIG1        0.0000
     25 C25        -1.6052    5.2694   -7.6173 C.3     1  LIG1        0.0000
     26 C26        -1.2430    6.3449   -6.8125 C.3     1  LIG1        0.0000
     27 C27        -0.9154    6.1131   -5.4812 C.3     1  LIG1        0.0000
     28 C28        -0.9403    6.2695   -2.4273 C.2     1  LIG1        0.0000
     29 C29        -2.2655    5.5622   -2.6640 C.3     1  LIG1        0.0000
     30 N30         0.7004    3.4417   -0.0139 N.pl3   1  LIG1        0.0000
     31 C31         1.0674    2.1259   -0.0101 C.3     1  LIG1        0.0000
     32 C32         2.2935    1.4674   -0.0246 C.3     1  LIG1        0.0000
     33 C33         2.3784    0.0788   -0.0153 C.3     1  LIG1        0.0000
     34 C34         1.2095   -0.6754    0.0069 C.3     1  LIG1        0.0000
     35 C35        -0.0153   -0.0174    0.0218 C.3     1  LIG1        0.0000
     36 C36        -0.0774    1.3718    0.0148 C.3     1  LIG1        0.0000
     37 C37        -2.9184    0.5221    2.1544 C.3     1  LIG1        0.0000
     38 H           1.3247    4.2227   -0.0329 H       1  LIG1        0.0000
     39 H          -3.6025   -1.6683    5.8520 H       1  LIG1        0.0000
     40 H          -3.1796   -0.0978    5.9983 H       1  LIG1        0.0000
     41 H          -4.6781   -0.4955    5.4854 H       1  LIG1        0.0000
     42 H          -4.1706    1.4587    5.0900 H       1  LIG1        0.0000
     43 H          -4.3315    3.5477    3.9361 H       1  LIG1        0.0000
     44 H          -3.6040    3.7380    1.6667 H       1  LIG1        0.0000
     45 H          -2.6784    0.9808   -0.4044 H       1  LIG1        0.0000
     46 H          -3.0945    2.5599   -0.4122 H       1  LIG1        0.0000
     47 H          -0.2541    9.2546   -4.6186 H       1  LIG1        0.0000
     48 H          -0.8232    9.6147   -6.9108 H       1  LIG1        0.0000
     49 H          -2.1203    6.9733  -10.3948 H       1  LIG1        0.0000
     50 H          -2.1938    4.7363   -9.5459 H       1  LIG1        0.0000
     51 H          -1.6304    4.3432   -7.2412 H       1  LIG1        0.0000
     52 H          -0.9395    5.1870   -5.1046 H       1  LIG1        0.0000
     53 H          -2.5652    5.1236   -1.8168 H       1  LIG1        0.0000
     54 H          -2.9517    6.2287   -2.9552 H       1  LIG1        0.0000
     55 H          -2.1509    4.8691   -3.3757 H       1  LIG1        0.0000
     56 H           3.1355    2.0066   -0.0421 H       1  LIG1        0.0000
     57 H           3.2707   -0.3726   -0.0245 H       1  LIG1        0.0000
     58 H           1.2496   -1.6746    0.0120 H       1  LIG1        0.0000
     59 H          -0.8618   -0.5495    0.0378 H       1  LIG1        0.0000
     60 H          -2.5452   -0.2775    1.6841 H       1  LIG1        0.0000
@<TRIPOS>BOND
     1     1     2    1
     2     2     3    1
     3     3     4   ar
     4     4     5   ar
     5     5     6   ar
     6     6     7   ar
     7     7     8    1
     8     8     9    1
     9     9    10    1
    10    10    11    2
    11    11    12    1
    12    12    13    2
    13    12    14    1
    14    14    15    1
    15    15    16    2
    16    16    17    1
    17    17    18    1
    18    18    19   ar
    19    19    20   ar
    20    20    21   ar
    21    21    22   ar
    22    22    23   ar
    23    23    24   ar
    24    24    25   ar
    25    25    26   ar
    26    26    21   ar
    27    26    27   ar
    28    27    18   ar
    29    17    28    1
    30    28    14    2
    31    28    29    1
    32    10    30    1
    33    30    31    1
    34    31    32   ar
    35    32    33   ar
    36    33    34   ar
    37    34    35   ar
    38    35    36   ar
    39    36    31   ar
    40    36     9    1
    41     7    37   ar
    42    37     3   ar
    43    30    38    1
    44     1    39    1
    45     1    40    1
    46     1    41    1
    47     4    42    1
    48     5    43    1
    49     6    44    1
    50     8    45    1
    51     8    46    1
    52    19    47    1
    53    20    48    1
    54    23    49    1
    55    24    50    1
    56    25    51    1
    57    27    52    1
    58    29    53    1
    59    29    54    1
    60    29    55    1
    61    32    56    1
    62    33    57    1
    63    34    58    1
    64    35    59    1
    65    37    60    1
