@<TRIPOS>MOLECULE
*****
 60 65 0 0 0
SMALL
USER_CHARGES

@<TRIPOS>ATOM
      1 C1         -4.8622    3.6138    5.4418 C.3     1  LIG1        0.0000
      2 O2         -4.4589    3.8265    4.0970 O.2     1  LIG1        0.0000
      3 C3         -3.9555    2.7460    3.4634 C.3     1  LIG1        0.0000
      4 C4         -3.8658    1.5340    4.1406 C.3     1  LIG1        0.0000
      5 C5         -3.3452    0.4277    3.4777 C.3     1  LIG1        0.0000
      6 C6         -2.9195    0.5233    2.1571 C.3     1  LIG1        0.0000
      7 C7         -3.0185    1.7449    1.4993 C.3     1  LIG1        0.0000
      8 C8         -2.5554    1.8599    0.0562 C.3     1  LIG1        0.0000
      9 N9         -1.1314    2.2349    0.0259 N.pl3   1  LIG1        0.0000
     10 C10        -0.6583    3.5101    0.0124 C.2     1  LIG1        0.0000
     11 N11        -1.3547    4.5710    0.0182 N.am    1  LIG1        0.0000
     12 C12        -0.6144    5.7236    0.0010 C.2     1  LIG1        0.0000
     13 O13        -0.3065    6.2234   -1.0456 O.2     1  LIG1        0.0000
     14 C14        -0.2026    6.3400    1.2484 C.2     1  LIG1        0.0000
     15 N15         0.9229    7.0762    1.4548 N.2     1  LIG1        0.0000
     16 N16         0.9347    7.4421    2.6649 N.2     1  LIG1        0.0000
     17 N17        -0.1131    7.0033    3.3177 N.pl3   1  LIG1        0.0000
     18 C18        -0.3999    7.2272    4.6696 C.3     1  LIG1        0.0000
     19 C19        -1.7092    7.4883    5.0596 C.3     1  LIG1        0.0000
     20 C20        -1.9834    7.7088    6.4053 C.3     1  LIG1        0.0000
     21 C21        -0.9724    7.6721    7.3604 C.3     1  LIG1        0.0000
     22 N22        -1.2314    7.8838    8.6592 N.pl3   1  LIG1        0.0000
     23 C23        -0.2599    7.8468    9.5837 C.3     1  LIG1        0.0000
     24 C24         1.0580    7.5866    9.2232 C.3     1  LIG1        0.0000
     25 C25         1.3536    7.3652    7.8826 C.3     1  LIG1        0.0000
     26 C26         0.3289    7.4080    6.9425 C.3     1  LIG1        0.0000
     27 C27         0.6298    7.1838    5.6036 C.3     1  LIG1        0.0000
     28 C28        -0.8651    6.2949    2.4325 C.2     1  LIG1        0.0000
     29 C29        -2.1815    5.5891    2.7178 C.3     1  LIG1        0.0000
     30 N30         0.7004    3.4417   -0.0139 N.pl3   1  LIG1        0.0000
     31 C31         1.0674    2.1259   -0.0101 C.3     1  LIG1        0.0000
     32 C32         2.2935    1.4674   -0.0246 C.3     1  LIG1        0.0000
     33 C33         2.3784    0.0788   -0.0153 C.3     1  LIG1        0.0000
     34 C34         1.2095   -0.6754    0.0069 C.3     1  LIG1        0.0000
     35 C35        -0.0153   -0.0174    0.0218 C.3     1  LIG1        0.0000
     36 C36        -0.0774    1.3718    0.0148 C.3     1  LIG1        0.0000
     37 C37        -3.5355    2.8643    2.1429 C.3     1  LIG1        0.0000
     38 H           1.3247    4.2227   -0.0329 H       1  LIG1        0.0000
     39 H          -5.2187    4.4674    5.8219 H       1  LIG1        0.0000
     40 H          -5.5753    2.9133    5.4692 H       1  LIG1        0.0000
     41 H          -4.0766    3.3111    5.9815 H       1  LIG1        0.0000
     42 H          -4.1711    1.4594    5.0899 H       1  LIG1        0.0000
     43 H          -3.2761   -0.4475    3.9566 H       1  LIG1        0.0000
     44 H          -2.5468   -0.2763    1.6863 H       1  LIG1        0.0000
     45 H          -2.6784    0.9808   -0.4044 H       1  LIG1        0.0000
     46 H          -3.0945    2.5599   -0.4122 H       1  LIG1        0.0000
     47 H          -2.4437    7.5170    4.3815 H       1  LIG1        0.0000
     48 H          -2.9230    7.8970    6.6911 H       1  LIG1        0.0000
     49 H          -0.4862    8.0084   10.5442 H       1  LIG1        0.0000
     50 H           1.7794    7.5593    9.9151 H       1  LIG1        0.0000
     51 H           2.2934    7.1771    7.5971 H       1  LIG1        0.0000
     52 H           1.5692    6.9948    5.3175 H       1  LIG1        0.0000
     53 H          -2.5112    5.1484    1.8829 H       1  LIG1        0.0000
     54 H          -2.0423    4.8980    3.4270 H       1  LIG1        0.0000
     55 H          -2.8567    6.2570    3.0311 H       1  LIG1        0.0000
     56 H           3.1355    2.0066   -0.0421 H       1  LIG1        0.0000
     57 H           3.2707   -0.3726   -0.0245 H       1  LIG1        0.0000
     58 H           1.2496   -1.6746    0.0120 H       1  LIG1        0.0000
     59 H          -0.8618   -0.5495    0.0378 H       1  LIG1        0.0000
     60 H          -3.6040    3.7396    1.6641 H       1  LIG1        0.0000
@<TRIPOS>BOND
     1     1     2    1
     2     2     3    1
     3     3     4   ar
     4     4     5   ar
     5     5     6   ar
     6     6     7   ar
     7     7     8    1
     8     8     9    1
     9     9    10    1
    10    10    11    2
    11    11    12    1
    12    12    13    2
    13    12    14    1
    14    14    15    1
    15    15    16    2
    16    16    17    1
    17    17    18    1
    18    18    19   ar
    19    19    20   ar
    20    20    21   ar
    21    21    22   ar
    22    22    23   ar
    23    23    24   ar
    24    24    25   ar
    25    25    26   ar
    26    26    21   ar
    27    26    27   ar
    28    27    18   ar
    29    17    28    1
    30    28    14    2
    31    28    29    1
    32    10    30    1
    33    30    31    1
    34    31    32   ar
    35    32    33   ar
    36    33    34   ar
    37    34    35   ar
    38    35    36   ar
    39    36    31   ar
    40    36     9    1
    41     7    37   ar
    42    37     3   ar
    43    30    38    1
    44     1    39    1
    45     1    40    1
    46     1    41    1
    47     4    42    1
    48     5    43    1
    49     6    44    1
    50     8    45    1
    51     8    46    1
    52    19    47    1
    53    20    48    1
    54    23    49    1
    55    24    50    1
    56    25    51    1
    57    27    52    1
    58    29    53    1
    59    29    54    1
    60    29    55    1
    61    32    56    1
    62    33    57    1
    63    34    58    1
    64    35    59    1
    65    37    60    1
