@<TRIPOS>MOLECULE
*****
 60 65 0 0 0
SMALL
USER_CHARGES

@<TRIPOS>ATOM
      1 C1         -5.0626    3.5082   -5.2730 C.3     1  LIG1        0.0000
      2 O2         -4.6091    3.7473   -3.9488 O.2     1  LIG1        0.0000
      3 C3         -4.0823    2.6792   -3.3131 C.3     1  LIG1        0.0000
      4 C4         -4.0173    1.4541   -3.9692 C.3     1  LIG1        0.0000
      5 C5         -3.4728    0.3606   -3.3043 C.3     1  LIG1        0.0000
      6 C6         -2.9972    0.4823   -2.0030 C.3     1  LIG1        0.0000
      7 C7         -3.0719    1.7167   -1.3662 C.3     1  LIG1        0.0000
      8 C8         -2.5554    1.8599    0.0562 C.3     1  LIG1        0.0000
      9 N9         -1.1314    2.2349    0.0259 N.pl3   1  LIG1        0.0000
     10 C10        -0.6583    3.5101    0.0124 C.2     1  LIG1        0.0000
     11 N11        -1.3547    4.5710    0.0182 N.am    1  LIG1        0.0000
     12 C12        -0.6144    5.7236    0.0010 C.2     1  LIG1        0.0000
     13 O13        -0.3065    6.2234   -1.0456 O.2     1  LIG1        0.0000
     14 C14        -0.2026    6.3400    1.2484 C.2     1  LIG1        0.0000
     15 N15        -1.0211    6.7987    2.2337 N.2     1  LIG1        0.0000
     16 N16        -0.2966    7.2658    3.1586 N.2     1  LIG1        0.0000
     17 N17         0.9790    7.1641    2.8777 N.pl3   1  LIG1        0.0000
     18 C18         2.0410    7.5873    3.6858 C.3     1  LIG1        0.0000
     19 C19         3.1851    6.8022    3.7828 C.3     1  LIG1        0.0000
     20 C20         4.2346    7.2321    4.5881 C.3     1  LIG1        0.0000
     21 C21         4.1562    8.4288    5.2932 C.3     1  LIG1        0.0000
     22 N22         5.1654    8.8480    6.0709 N.pl3   1  LIG1        0.0000
     23 C23         5.0949   10.0025    6.7505 C.3     1  LIG1        0.0000
     24 C24         3.9642   10.8087    6.6714 C.3     1  LIG1        0.0000
     25 C25         2.9029   10.3962    5.8732 C.3     1  LIG1        0.0000
     26 C26         2.9999    9.1953    5.1774 C.3     1  LIG1        0.0000
     27 C27         1.9365    8.7885    4.3791 C.3     1  LIG1        0.0000
     28 C28         1.0714    6.5690    1.6577 C.2     1  LIG1        0.0000
     29 C29         2.3486    6.2345    0.9033 C.3     1  LIG1        0.0000
     30 N30         0.7004    3.4417   -0.0139 N.pl3   1  LIG1        0.0000
     31 C31         1.0674    2.1259   -0.0101 C.3     1  LIG1        0.0000
     32 C32         2.2935    1.4674   -0.0246 C.3     1  LIG1        0.0000
     33 C33         2.3784    0.0788   -0.0153 C.3     1  LIG1        0.0000
     34 C34         1.2095   -0.6754    0.0069 C.3     1  LIG1        0.0000
     35 C35        -0.0153   -0.0174    0.0218 C.3     1  LIG1        0.0000
     36 C36        -0.0774    1.3718    0.0148 C.3     1  LIG1        0.0000
     37 C37        -3.6129    2.8234   -2.0119 C.3     1  LIG1        0.0000
     38 H           1.3247    4.2227   -0.0329 H       1  LIG1        0.0000
     39 H          -5.4330    4.3543   -5.6563 H       1  LIG1        0.0000
     40 H          -4.2979    3.1941   -5.8357 H       1  LIG1        0.0000
     41 H          -5.7763    2.8079   -5.2596 H       1  LIG1        0.0000
     42 H          -4.3571    1.3611   -4.9051 H       1  LIG1        0.0000
     43 H          -3.4227   -0.5242   -3.7676 H       1  LIG1        0.0000
     44 H          -2.6063   -0.3079   -1.5310 H       1  LIG1        0.0000
     45 H          -3.0769    2.5692    0.5304 H       1  LIG1        0.0000
     46 H          -2.6608    0.9901    0.5382 H       1  LIG1        0.0000
     47 H           3.2522    5.9402    3.2803 H       1  LIG1        0.0000
     48 H           5.0594    6.6715    4.6614 H       1  LIG1        0.0000
     49 H           5.8651   10.2872    7.3213 H       1  LIG1        0.0000
     50 H           3.9155   11.6689    7.1789 H       1  LIG1        0.0000
     51 H           2.0782   10.9570    5.8001 H       1  LIG1        0.0000
     52 H           1.1119    9.3493    4.3049 H       1  LIG1        0.0000
     53 H           2.1174    5.8014    0.0321 H       1  LIG1        0.0000
     54 H           2.8641    7.0741    0.7318 H       1  LIG1        0.0000
     55 H           2.9042    5.6080    1.4499 H       1  LIG1        0.0000
     56 H           3.1355    2.0066   -0.0421 H       1  LIG1        0.0000
     57 H           3.2707   -0.3726   -0.0245 H       1  LIG1        0.0000
     58 H           1.2496   -1.6746    0.0120 H       1  LIG1        0.0000
     59 H          -0.8618   -0.5495    0.0378 H       1  LIG1        0.0000
     60 H          -3.6636    3.7081   -1.5484 H       1  LIG1        0.0000
@<TRIPOS>BOND
     1     1     2    1
     2     2     3    1
     3     3     4   ar
     4     4     5   ar
     5     5     6   ar
     6     6     7   ar
     7     7     8    1
     8     8     9    1
     9     9    10    1
    10    10    11    2
    11    11    12    1
    12    12    13    2
    13    12    14    1
    14    14    15    1
    15    15    16    2
    16    16    17    1
    17    17    18    1
    18    18    19   ar
    19    19    20   ar
    20    20    21   ar
    21    21    22   ar
    22    22    23   ar
    23    23    24   ar
    24    24    25   ar
    25    25    26   ar
    26    26    21   ar
    27    26    27   ar
    28    27    18   ar
    29    17    28    1
    30    28    14    2
    31    28    29    1
    32    10    30    1
    33    30    31    1
    34    31    32   ar
    35    32    33   ar
    36    33    34   ar
    37    34    35   ar
    38    35    36   ar
    39    36    31   ar
    40    36     9    1
    41     7    37   ar
    42    37     3   ar
    43    30    38    1
    44     1    39    1
    45     1    40    1
    46     1    41    1
    47     4    42    1
    48     5    43    1
    49     6    44    1
    50     8    45    1
    51     8    46    1
    52    19    47    1
    53    20    48    1
    54    23    49    1
    55    24    50    1
    56    25    51    1
    57    27    52    1
    58    29    53    1
    59    29    54    1
    60    29    55    1
    61    32    56    1
    62    33    57    1
    63    34    58    1
    64    35    59    1
    65    37    60    1
