@<TRIPOS>MOLECULE

  56   60
SMALL
USER_CHARGES
@<TRIPOS>ATOM
   1 C1           1.9862     2.1088     8.2760 C.3          1    LIG   0.0000
   2 O2           2.7113     2.7955     7.2666 O.3          1    LIG   0.0000
   3 C3           2.3530     2.4238     5.9438 C.3          1    LIG   0.0000
   4 C4           3.1872     3.2169     4.9511 C.3          1    LIG   0.0000
   5 C5           2.8037     2.8192     3.5357 C.2          1    LIG   0.0000
   6 N6           3.3203     3.3017     2.4340 N.2          1    LIG   0.0000
   7 O7           2.7648     2.7409     1.4446 O.2          1    LIG   0.0000
   8 C8           1.8781     1.8781     1.8781 C.2          1    LIG   0.0000
   9 C9           1.0000     1.0000     1.0000 C.3          1    LIG   0.0000
  10 N10         -0.2538     1.7059     0.6992 N.pl3        1    LIG   0.0000
  11 C11         -1.4752     1.3882     1.4530 C.3          1    LIG   0.0000
  12 C12         -0.2847     2.6815    -0.3059 C.ar         1    LIG   0.0000
  13 N13          0.7854     3.0353    -1.0363 N.ar         1    LIG   0.0000
  14 C14          0.7333     3.9824    -1.9920 C.ar         1    LIG   0.0000
  15 C15          1.9575     4.2703    -2.7133 C.ar         1    LIG   0.0000
  16 C16          3.1647     4.3089    -2.0235 C.ar         1    LIG   0.0000
  17 C17          4.3366     4.5859    -2.7198 C.ar         1    LIG   0.0000
  18 C18          4.2922     4.8212    -4.0897 C.ar         1    LIG   0.0000
  19 C19          5.5770     5.1233    -4.8424 C.3          1    LIG   0.0000
  20 C20          3.0803     4.7796    -4.7722 C.ar         1    LIG   0.0000
  21 C21          1.9039     4.5035    -4.0839 C.ar         1    LIG   0.0000
  22 C22         -0.4423     4.6777    -2.2972 C.ar         1    LIG   0.0000
  23 C23         -0.8493     5.7027    -3.2213 C.2          1    LIG   0.0000
  24 C24         -2.1510     6.0339    -3.0869 C.2          1    LIG   0.0000
  25 S25         -2.8775     5.0917    -1.8717 S.3          1    LIG   0.0000
  26 C26         -1.4654     4.2306    -1.4883 C.ar         1    LIG   0.0000
  27 N27         -1.4498     3.2940    -0.5401 N.ar         1    LIG   0.0000
  28 C28         -2.6200     7.1447    -3.9910 C.3          1    LIG   0.0000
  29 C29         -1.6141     7.0166    -5.1120 C.3          1    LIG   0.0000
  30 C30         -0.3820     6.6330    -4.3232 C.3          1    LIG   0.0000
  31 N31          1.8678     1.8977     3.1879 N.2          1    LIG   0.0000
  32 H            2.2908     2.4207     9.1760 H            1    LIG   0.0000
  33 H            1.0096     2.2965     8.1711 H            1    LIG   0.0000
  34 H            2.1476     1.1255     8.1919 H            1    LIG   0.0000
  35 H            1.3834     2.6176     5.7942 H            1    LIG   0.0000
  36 H            2.5213     1.4466     5.8150 H            1    LIG   0.0000
  37 H            3.0188     4.1942     5.0799 H            1    LIG   0.0000
  38 H            4.1567     3.0232     5.1006 H            1    LIG   0.0000
  39 H            1.4802     0.7954     0.1471 H            1    LIG   0.0000
  40 H            0.7954     0.1471     1.4802 H            1    LIG   0.0000
  41 H           -1.2759     0.6758     2.1257 H            1    LIG   0.0000
  42 H           -1.7999     2.2090     1.9229 H            1    LIG   0.0000
  43 H           -2.1808     1.0638     0.8230 H            1    LIG   0.0000
  44 H            3.1899     4.1396    -1.0382 H            1    LIG   0.0000
  45 H            5.2109     4.6158    -2.2353 H            1    LIG   0.0000
  46 H            5.3704     5.2665    -5.8103 H            1    LIG   0.0000
  47 H            5.9978     5.9486    -4.4658 H            1    LIG   0.0000
  48 H            6.2083     4.3537    -4.7466 H            1    LIG   0.0000
  49 H            3.0553     4.9481    -5.7576 H            1    LIG   0.0000
  50 H            1.0297     4.4729    -4.5685 H            1    LIG   0.0000
  51 H           -2.5635     8.0367    -3.5424 H            1    LIG   0.0000
  52 H           -3.5545     6.9917    -4.3121 H            1    LIG   0.0000
  53 H           -1.4885     7.8817    -5.5977 H            1    LIG   0.0000
  54 H           -1.8740     6.3035    -5.7631 H            1    LIG   0.0000
  55 H            0.2752     6.1656    -4.9145 H            1    LIG   0.0000
  56 H            0.0440     7.4478    -3.9300 H            1    LIG   0.0000
@<TRIPOS>BOND
   1        1        2 1
   2        2        3 1
   3        3        4 1
   4        4        5 1
   5        5        6 2
   6        6        7 1
   7        7        8 1
   8        8        9 1
   9        9       10 1
  10       10       11 1
  11       10       12 1
  12       12       13 ar
  13       13       14 ar
  14       14       15 1
  15       15       16 ar
  16       16       17 ar
  17       17       18 ar
  18       18       19 1
  19       18       20 ar
  20       20       21 ar
  21       21       15 ar
  22       14       22 ar
  23       22       23 1
  24       23       24 2
  25       24       25 1
  26       25       26 1
  27       26       22 ar
  28       26       27 ar
  29       27       12 ar
  30       24       28 1
  31       28       29 1
  32       29       30 1
  33       30       23 1
  34        8       31 2
  35       31        5 1
  36        1       32 1
  37        1       33 1
  38        1       34 1
  39        3       35 1
  40        3       36 1
  41        4       37 1
  42        4       38 1
  43        9       39 1
  44        9       40 1
  45       11       41 1
  46       11       42 1
  47       11       43 1
  48       16       44 1
  49       17       45 1
  50       19       46 1
  51       19       47 1
  52       19       48 1
  53       20       49 1
  54       21       50 1
  55       28       51 1
  56       28       52 1
  57       29       53 1
  58       29       54 1
  59       30       55 1
  60       30       56 1

@<TRIPOS>MOLECULE

  56   60
SMALL
USER_CHARGES
@<TRIPOS>ATOM
   1 C1           1.9862     2.1088     8.2760 C.3          1    LIG   0.0000
   2 O2           2.7113     2.7955     7.2666 O.3          1    LIG   0.0000
   3 C3           2.3530     2.4238     5.9438 C.3          1    LIG   0.0000
   4 C4           3.1872     3.2169     4.9511 C.3          1    LIG   0.0000
   5 C5           2.8037     2.8192     3.5357 C.2          1    LIG   0.0000
   6 N6           3.3203     3.3017     2.4340 N.2          1    LIG   0.0000
   7 O7           2.7648     2.7409     1.4446 O.2          1    LIG   0.0000
   8 C8           1.8781     1.8781     1.8781 C.2          1    LIG   0.0000
   9 C9           1.0000     1.0000     1.0000 C.3          1    LIG   0.0000
  10 N10         -0.2538     1.7059     0.6992 N.pl3        1    LIG   0.0000
  11 C11         -1.4752     1.3882     1.4530 C.3          1    LIG   0.0000
  12 C12         -0.2847     2.6815    -0.3059 C.ar         1    LIG   0.0000
  13 N13         -1.3879     3.3677    -0.6468 N.ar         1    LIG   0.0000
  14 C14         -1.3951     4.2955    -1.6227 C.ar         1    LIG   0.0000
  15 C15         -2.6498     4.9698    -1.8926 C.ar         1    LIG   0.0000
  16 C16         -3.8352     4.2423    -1.8729 C.ar         1    LIG   0.0000
  17 C17         -5.0365     4.8936    -2.1328 C.ar         1    LIG   0.0000
  18 C18         -5.0428     6.2565    -2.4094 C.ar         1    LIG   0.0000
  19 C19         -6.3593     6.9599    -2.6926 C.3          1    LIG   0.0000
  20 C20         -3.8524     6.9769    -2.4261 C.ar         1    LIG   0.0000
  21 C21         -2.6468     6.3338    -2.1674 C.ar         1    LIG   0.0000
  22 C22         -0.2517     4.6155    -2.3635 C.ar         1    LIG   0.0000
  23 C23          0.0942     5.5202    -3.4274 C.2          1    LIG   0.0000
  24 C24          1.3887     5.4159    -3.7956 C.2          1    LIG   0.0000
  25 S25          2.1818     4.2527    -2.8417 S.3          1    LIG   0.0000
  26 C26          0.8098     3.8523    -1.9254 C.ar         1    LIG   0.0000
  27 N27          0.8530     2.9328    -0.9615 N.ar         1    LIG   0.0000
  28 C28          1.7945     6.3000    -4.9467 C.3          1    LIG   0.0000
  29 C29          0.7580     7.3930    -4.8196 C.3          1    LIG   0.0000
  30 C30         -0.4361     6.5787    -4.3743 C.3          1    LIG   0.0000
  31 N31          1.8678     1.8977     3.1879 N.2          1    LIG   0.0000
  32 H            2.2908     2.4207     9.1760 H            1    LIG   0.0000
  33 H            1.0096     2.2965     8.1711 H            1    LIG   0.0000
  34 H            2.1476     1.1255     8.1919 H            1    LIG   0.0000
  35 H            1.3834     2.6176     5.7942 H            1    LIG   0.0000
  36 H            2.5213     1.4466     5.8150 H            1    LIG   0.0000
  37 H            3.0188     4.1942     5.0799 H            1    LIG   0.0000
  38 H            4.1567     3.0232     5.1006 H            1    LIG   0.0000
  39 H            1.4802     0.7954     0.1471 H            1    LIG   0.0000
  40 H            0.7954     0.1471     1.4802 H            1    LIG   0.0000
  41 H           -1.2759     0.6758     2.1257 H            1    LIG   0.0000
  42 H           -1.7999     2.2090     1.9229 H            1    LIG   0.0000
  43 H           -2.1808     1.0638     0.8230 H            1    LIG   0.0000
  44 H           -3.8239     3.2624    -1.6740 H            1    LIG   0.0000
  45 H           -5.8956     4.3819    -2.1208 H            1    LIG   0.0000
  46 H           -6.1880     7.9290    -2.8705 H            1    LIG   0.0000
  47 H           -6.7932     6.5458    -3.4928 H            1    LIG   0.0000
  48 H           -6.9633     6.8681    -1.9010 H            1    LIG   0.0000
  49 H           -3.8638     7.9570    -2.6242 H            1    LIG   0.0000
  50 H           -1.7878     6.8456    -2.1787 H            1    LIG   0.0000
  51 H            1.7248     5.8231    -5.8229 H            1    LIG   0.0000
  52 H            2.7227     6.6542    -4.8328 H            1    LIG   0.0000
  53 H            0.5907     7.8482    -5.6941 H            1    LIG   0.0000
  54 H            1.0189     8.0730    -4.1344 H            1    LIG   0.0000
  55 H           -1.0970     7.1633    -3.9039 H            1    LIG   0.0000
  56 H           -0.8743     6.1481    -5.1633 H            1    LIG   0.0000
@<TRIPOS>BOND
   1        1        2 1
   2        2        3 1
   3        3        4 1
   4        4        5 1
   5        5        6 2
   6        6        7 1
   7        7        8 1
   8        8        9 1
   9        9       10 1
  10       10       11 1
  11       10       12 1
  12       12       13 ar
  13       13       14 ar
  14       14       15 1
  15       15       16 ar
  16       16       17 ar
  17       17       18 ar
  18       18       19 1
  19       18       20 ar
  20       20       21 ar
  21       21       15 ar
  22       14       22 ar
  23       22       23 1
  24       23       24 2
  25       24       25 1
  26       25       26 1
  27       26       22 ar
  28       26       27 ar
  29       27       12 ar
  30       24       28 1
  31       28       29 1
  32       29       30 1
  33       30       23 1
  34        8       31 2
  35       31        5 1
  36        1       32 1
  37        1       33 1
  38        1       34 1
  39        3       35 1
  40        3       36 1
  41        4       37 1
  42        4       38 1
  43        9       39 1
  44        9       40 1
  45       11       41 1
  46       11       42 1
  47       11       43 1
  48       16       44 1
  49       17       45 1
  50       19       46 1
  51       19       47 1
  52       19       48 1
  53       20       49 1
  54       21       50 1
  55       28       51 1
  56       28       52 1
  57       29       53 1
  58       29       54 1
  59       30       55 1
  60       30       56 1

@<TRIPOS>MOLECULE

  56   60
SMALL
USER_CHARGES
@<TRIPOS>ATOM
   1 C1           1.9862     2.1088     8.2760 C.3          1    LIG   0.0000
   2 O2           2.7113     2.7955     7.2666 O.3          1    LIG   0.0000
   3 C3           2.3530     2.4238     5.9438 C.3          1    LIG   0.0000
   4 C4           3.1872     3.2169     4.9511 C.3          1    LIG   0.0000
   5 C5           2.8037     2.8192     3.5357 C.2          1    LIG   0.0000
   6 N6           3.3203     3.3017     2.4340 N.2          1    LIG   0.0000
   7 O7           2.7648     2.7409     1.4446 O.2          1    LIG   0.0000
   8 C8           1.8781     1.8781     1.8781 C.2          1    LIG   0.0000
   9 C9           1.0000     1.0000     1.0000 C.3          1    LIG   0.0000
  10 N10         -0.2538     1.7059     0.6992 N.pl3        1    LIG   0.0000
  11 C11         -0.4237     2.3837    -0.5941 C.3          1    LIG   0.0000
  12 C12         -1.2870     1.7327     1.6452 C.ar         1    LIG   0.0000
  13 N13         -1.2156     1.1355     2.8461 N.ar         1    LIG   0.0000
  14 C14         -2.2255     1.1679     3.7361 C.ar         1    LIG   0.0000
  15 C15         -2.0229     0.4871     4.9999 C.ar         1    LIG   0.0000
  16 C16         -1.3669    -0.7394     5.0186 C.ar         1    LIG   0.0000
  17 C17         -1.1752    -1.3889     6.2336 C.ar         1    LIG   0.0000
  18 C18         -1.6383    -0.8119     7.4111 C.ar         1    LIG   0.0000
  19 C19         -1.4249    -1.5284     8.7338 C.3          1    LIG   0.0000
  20 C20         -2.2926     0.4159     7.3835 C.ar         1    LIG   0.0000
  21 C21         -2.4886     1.0722     6.1732 C.ar         1    LIG   0.0000
  22 C22         -3.4340     1.8244     3.4773 C.ar         1    LIG   0.0000
  23 C23         -4.6730     2.0604     4.1696 C.2          1    LIG   0.0000
  24 C24         -5.5497     2.7756     3.4333 C.2          1    LIG   0.0000
  25 S25         -4.8658     3.1797     1.9296 S.3          1    LIG   0.0000
  26 C26         -3.3888     2.3957     2.2232 C.ar         1    LIG   0.0000
  27 N27         -2.4066     2.3883     1.3224 N.ar         1    LIG   0.0000
  28 C28         -6.8886     3.0044     4.0860 C.3          1    LIG   0.0000
  29 C29         -6.4990     2.8795     5.5411 C.3          1    LIG   0.0000
  30 C30         -5.4491     1.7952     5.4446 C.3          1    LIG   0.0000
  31 N31          1.8678     1.8977     3.1879 N.2          1    LIG   0.0000
  32 H            2.2908     2.4207     9.1760 H            1    LIG   0.0000
  33 H            1.0096     2.2965     8.1711 H            1    LIG   0.0000
  34 H            2.1476     1.1255     8.1919 H            1    LIG   0.0000
  35 H            1.3834     2.6176     5.7942 H            1    LIG   0.0000
  36 H            2.5213     1.4466     5.8150 H            1    LIG   0.0000
  37 H            3.0188     4.1942     5.0799 H            1    LIG   0.0000
  38 H            4.1567     3.0232     5.1006 H            1    LIG   0.0000
  39 H            1.4802     0.7954     0.1471 H            1    LIG   0.0000
  40 H            0.7954     0.1471     1.4802 H            1    LIG   0.0000
  41 H            0.4035     2.2656    -1.1435 H            1    LIG   0.0000
  42 H           -1.2044     1.9881    -1.0778 H            1    LIG   0.0000
  43 H           -0.5857     3.3585    -0.4408 H            1    LIG   0.0000
  44 H           -1.0369    -1.1494     4.1683 H            1    LIG   0.0000
  45 H           -0.7043    -2.2707     6.2603 H            1    LIG   0.0000
  46 H           -1.8148    -0.9824     9.4753 H            1    LIG   0.0000
  47 H           -1.8743    -2.4213     8.7055 H            1    LIG   0.0000
  48 H           -0.4453    -1.6531     8.8911 H            1    LIG   0.0000
  49 H           -2.6219     0.8262     8.2339 H            1    LIG   0.0000
  50 H           -2.9588     1.9543     6.1465 H            1    LIG   0.0000
  51 H           -7.5549     2.3080     3.8194 H            1    LIG   0.0000
  52 H           -7.2530     3.9118     3.8763 H            1    LIG   0.0000
  53 H           -7.2723     2.5968     6.1087 H            1    LIG   0.0000
  54 H           -6.1185     3.7329     5.8973 H            1    LIG   0.0000
  55 H           -4.8382     1.8344     6.2354 H            1    LIG   0.0000
  56 H           -5.8840     0.8957     5.4037 H            1    LIG   0.0000
@<TRIPOS>BOND
   1        1        2 1
   2        2        3 1
   3        3        4 1
   4        4        5 1
   5        5        6 2
   6        6        7 1
   7        7        8 1
   8        8        9 1
   9        9       10 1
  10       10       11 1
  11       10       12 1
  12       12       13 ar
  13       13       14 ar
  14       14       15 1
  15       15       16 ar
  16       16       17 ar
  17       17       18 ar
  18       18       19 1
  19       18       20 ar
  20       20       21 ar
  21       21       15 ar
  22       14       22 ar
  23       22       23 1
  24       23       24 2
  25       24       25 1
  26       25       26 1
  27       26       22 ar
  28       26       27 ar
  29       27       12 ar
  30       24       28 1
  31       28       29 1
  32       29       30 1
  33       30       23 1
  34        8       31 2
  35       31        5 1
  36        1       32 1
  37        1       33 1
  38        1       34 1
  39        3       35 1
  40        3       36 1
  41        4       37 1
  42        4       38 1
  43        9       39 1
  44        9       40 1
  45       11       41 1
  46       11       42 1
  47       11       43 1
  48       16       44 1
  49       17       45 1
  50       19       46 1
  51       19       47 1
  52       19       48 1
  53       20       49 1
  54       21       50 1
  55       28       51 1
  56       28       52 1
  57       29       53 1
  58       29       54 1
  59       30       55 1
  60       30       56 1

@<TRIPOS>MOLECULE

  56   60
SMALL
USER_CHARGES
@<TRIPOS>ATOM
   1 C1           1.9862     2.1088     8.2760 C.3          1    LIG   0.0000
   2 O2           2.7113     2.7955     7.2666 O.3          1    LIG   0.0000
   3 C3           2.3530     2.4238     5.9438 C.3          1    LIG   0.0000
   4 C4           3.1872     3.2169     4.9511 C.3          1    LIG   0.0000
   5 C5           2.8037     2.8192     3.5357 C.2          1    LIG   0.0000
   6 N6           3.3203     3.3017     2.4340 N.2          1    LIG   0.0000
   7 O7           2.7648     2.7409     1.4446 O.2          1    LIG   0.0000
   8 C8           1.8781     1.8781     1.8781 C.2          1    LIG   0.0000
   9 C9           1.0000     1.0000     1.0000 C.3          1    LIG   0.0000
  10 N10         -0.2538     1.7059     0.6992 N.pl3        1    LIG   0.0000
  11 C11         -0.4237     2.3837    -0.5941 C.3          1    LIG   0.0000
  12 C12         -1.2870     1.7327     1.6452 C.ar         1    LIG   0.0000
  13 N13         -2.4597     2.3585     1.4526 N.ar         1    LIG   0.0000
  14 C14         -3.4352     2.3776     2.3805 C.ar         1    LIG   0.0000
  15 C15         -4.6568     3.0848     2.0497 C.ar         1    LIG   0.0000
  16 C16         -4.5833     4.2924     1.3631 C.ar         1    LIG   0.0000
  17 C17         -5.7581     4.9675     1.0482 C.ar         1    LIG   0.0000
  18 C18         -6.9874     4.4343     1.4203 C.ar         1    LIG   0.0000
  19 C19         -8.2656     5.1784     1.0726 C.3          1    LIG   0.0000
  20 C20         -7.0518     3.2252     2.1060 C.ar         1    LIG   0.0000
  21 C21         -5.8824     2.5437     2.4250 C.ar         1    LIG   0.0000
  22 C22         -3.3019     1.7490     3.6237 C.ar         1    LIG   0.0000
  23 C23         -4.1064     1.5660     4.8025 C.2          1    LIG   0.0000
  24 C24         -3.4701     0.8571     5.7589 C.2          1    LIG   0.0000
  25 S25         -1.9243     0.3951     5.2211 S.3          1    LIG   0.0000
  26 C26         -2.0653     1.1444     3.7042 C.ar         1    LIG   0.0000
  27 N27         -1.0821     1.1009     2.8055 N.ar         1    LIG   0.0000
  28 C28         -4.2437     0.6830     7.0405 C.3          1    LIG   0.0000
  29 C29         -5.6550     0.8345     6.5208 C.3          1    LIG   0.0000
  30 C30         -5.4364     1.8858     5.4558 C.3          1    LIG   0.0000
  31 N31          1.8678     1.8977     3.1879 N.2          1    LIG   0.0000
  32 H            2.2908     2.4207     9.1760 H            1    LIG   0.0000
  33 H            1.0096     2.2965     8.1711 H            1    LIG   0.0000
  34 H            2.1476     1.1255     8.1919 H            1    LIG   0.0000
  35 H            1.3834     2.6176     5.7942 H            1    LIG   0.0000
  36 H            2.5213     1.4466     5.8150 H            1    LIG   0.0000
  37 H            3.0188     4.1942     5.0799 H            1    LIG   0.0000
  38 H            4.1567     3.0232     5.1006 H            1    LIG   0.0000
  39 H            1.4802     0.7954     0.1471 H            1    LIG   0.0000
  40 H            0.7954     0.1471     1.4802 H            1    LIG   0.0000
  41 H            0.4035     2.2656    -1.1435 H            1    LIG   0.0000
  42 H           -1.2044     1.9881    -1.0778 H            1    LIG   0.0000
  43 H           -0.5857     3.3585    -0.4408 H            1    LIG   0.0000
  44 H           -3.6962     4.6708     1.0990 H            1    LIG   0.0000
  45 H           -5.7186     5.8360     0.5542 H            1    LIG   0.0000
  46 H           -9.0535     4.6630     1.4094 H            1    LIG   0.0000
  47 H           -8.2516     6.0826     1.4995 H            1    LIG   0.0000
  48 H           -8.3330     5.2795     0.0800 H            1    LIG   0.0000
  49 H           -7.9390     2.8464     2.3694 H            1    LIG   0.0000
  50 H           -5.9219     1.6747     2.9183 H            1    LIG   0.0000
  51 H           -4.0170     1.3909     7.7095 H            1    LIG   0.0000
  52 H           -4.0924    -0.2188     7.4452 H            1    LIG   0.0000
  53 H           -6.2799     1.1534     7.2335 H            1    LIG   0.0000
  54 H           -6.0005    -0.0199     6.1326 H            1    LIG   0.0000
  55 H           -6.1715     1.8499     4.7788 H            1    LIG   0.0000
  56 H           -5.4083     2.7959     5.8693 H            1    LIG   0.0000
@<TRIPOS>BOND
   1        1        2 1
   2        2        3 1
   3        3        4 1
   4        4        5 1
   5        5        6 2
   6        6        7 1
   7        7        8 1
   8        8        9 1
   9        9       10 1
  10       10       11 1
  11       10       12 1
  12       12       13 ar
  13       13       14 ar
  14       14       15 1
  15       15       16 ar
  16       16       17 ar
  17       17       18 ar
  18       18       19 1
  19       18       20 ar
  20       20       21 ar
  21       21       15 ar
  22       14       22 ar
  23       22       23 1
  24       23       24 2
  25       24       25 1
  26       25       26 1
  27       26       22 ar
  28       26       27 ar
  29       27       12 ar
  30       24       28 1
  31       28       29 1
  32       29       30 1
  33       30       23 1
  34        8       31 2
  35       31        5 1
  36        1       32 1
  37        1       33 1
  38        1       34 1
  39        3       35 1
  40        3       36 1
  41        4       37 1
  42        4       38 1
  43        9       39 1
  44        9       40 1
  45       11       41 1
  46       11       42 1
  47       11       43 1
  48       16       44 1
  49       17       45 1
  50       19       46 1
  51       19       47 1
  52       19       48 1
  53       20       49 1
  54       21       50 1
  55       28       51 1
  56       28       52 1
  57       29       53 1
  58       29       54 1
  59       30       55 1
  60       30       56 1

@<TRIPOS>MOLECULE

  56   60
SMALL
USER_CHARGES
@<TRIPOS>ATOM
   1 C1           1.9862     2.1088     8.2760 C.3          1    LIG   0.0000
   2 O2           2.7113     2.7955     7.2666 O.3          1    LIG   0.0000
   3 C3           2.3530     2.4238     5.9438 C.3          1    LIG   0.0000
   4 C4           3.1872     3.2169     4.9511 C.3          1    LIG   0.0000
   5 C5           2.8037     2.8192     3.5357 C.2          1    LIG   0.0000
   6 N6           3.3203     3.3017     2.4340 N.2          1    LIG   0.0000
   7 O7           2.7648     2.7409     1.4446 O.2          1    LIG   0.0000
   8 C8           1.8781     1.8781     1.8781 C.2          1    LIG   0.0000
   9 C9           1.0000     1.0000     1.0000 C.3          1    LIG   0.0000
  10 N10         -0.2538     1.7059     0.6992 N.pl3        1    LIG   0.0000
  11 C11         -0.4851     3.0546     1.2363 C.3          1    LIG   0.0000
  12 C12         -1.2285     1.0933    -0.0994 C.ar         1    LIG   0.0000
  13 N13         -1.0944    -0.1318    -0.6333 N.ar         1    LIG   0.0000
  14 C14         -2.0420    -0.6969    -1.4051 C.ar         1    LIG   0.0000
  15 C15         -1.7786    -2.0269    -1.9185 C.ar         1    LIG   0.0000
  16 C16         -0.5006    -2.3469    -2.3650 C.ar         1    LIG   0.0000
  17 C17         -0.2528    -3.6241    -2.8570 C.ar         1    LIG   0.0000
  18 C18         -1.2771    -4.5637    -2.8994 C.ar         1    LIG   0.0000
  19 C19         -0.9978    -5.9564    -3.4387 C.3          1    LIG   0.0000
  20 C20         -2.5524    -4.2355    -2.4497 C.ar         1    LIG   0.0000
  21 C21         -2.8091    -2.9610    -1.9563 C.ar         1    LIG   0.0000
  22 C22         -3.2426    -0.0486    -1.7162 C.ar         1    LIG   0.0000
  23 C23         -4.4320    -0.3411    -2.4712 C.2          1    LIG   0.0000
  24 C24         -5.3188     0.6764    -2.4554 C.2          1    LIG   0.0000
  25 S25         -4.7263     1.9613    -1.5118 S.3          1    LIG   0.0000
  26 C26         -3.2655     1.1923    -1.1155 C.ar         1    LIG   0.0000
  27 N27         -2.3507     1.7778    -0.3430 N.ar         1    LIG   0.0000
  28 C28         -6.5607     0.4490    -3.2783 C.3          1    LIG   0.0000
  29 C29         -6.6005    -1.0620    -3.2859 C.3          1    LIG   0.0000
  30 C30         -5.1208    -1.3682    -3.3480 C.3          1    LIG   0.0000
  31 N31          1.8678     1.8977     3.1879 N.2          1    LIG   0.0000
  32 H            2.2908     2.4207     9.1760 H            1    LIG   0.0000
  33 H            1.0096     2.2965     8.1711 H            1    LIG   0.0000
  34 H            2.1476     1.1255     8.1919 H            1    LIG   0.0000
  35 H            1.3834     2.6176     5.7942 H            1    LIG   0.0000
  36 H            2.5213     1.4466     5.8150 H            1    LIG   0.0000
  37 H            3.0188     4.1942     5.0799 H            1    LIG   0.0000
  38 H            4.1567     3.0232     5.1006 H            1    LIG   0.0000
  39 H            1.4802     0.7954     0.1471 H            1    LIG   0.0000
  40 H            0.7954     0.1471     1.4802 H            1    LIG   0.0000
  41 H            0.3054     3.3371     1.7797 H            1    LIG   0.0000
  42 H           -0.6166     3.6963     0.4807 H            1    LIG   0.0000
  43 H           -1.3014     3.0480     1.8138 H            1    LIG   0.0000
  44 H            0.2315    -1.6665    -2.3326 H            1    LIG   0.0000
  45 H            0.6619    -3.8667    -3.1803 H            1    LIG   0.0000
  46 H           -1.8343    -6.5030    -3.3995 H            1    LIG   0.0000
  47 H           -0.6867    -5.8905    -4.3868 H            1    LIG   0.0000
  48 H           -0.2885    -6.3923    -2.8846 H            1    LIG   0.0000
  49 H           -3.2843    -4.9162    -2.4814 H            1    LIG   0.0000
  50 H           -3.7236    -2.7186    -1.6323 H            1    LIG   0.0000
  51 H           -6.4673     0.8221    -4.2014 H            1    LIG   0.0000
  52 H           -7.3714     0.8390    -2.8416 H            1    LIG   0.0000
  53 H           -7.0858    -1.4157    -4.0856 H            1    LIG   0.0000
  54 H           -7.0194    -1.4257    -2.4540 H            1    LIG   0.0000
  55 H           -4.9440    -2.2904    -3.0041 H            1    LIG   0.0000
  56 H           -4.7919    -1.2949    -4.2896 H            1    LIG   0.0000
@<TRIPOS>BOND
   1        1        2 1
   2        2        3 1
   3        3        4 1
   4        4        5 1
   5        5        6 2
   6        6        7 1
   7        7        8 1
   8        8        9 1
   9        9       10 1
  10       10       11 1
  11       10       12 1
  12       12       13 ar
  13       13       14 ar
  14       14       15 1
  15       15       16 ar
  16       16       17 ar
  17       17       18 ar
  18       18       19 1
  19       18       20 ar
  20       20       21 ar
  21       21       15 ar
  22       14       22 ar
  23       22       23 1
  24       23       24 2
  25       24       25 1
  26       25       26 1
  27       26       22 ar
  28       26       27 ar
  29       27       12 ar
  30       24       28 1
  31       28       29 1
  32       29       30 1
  33       30       23 1
  34        8       31 2
  35       31        5 1
  36        1       32 1
  37        1       33 1
  38        1       34 1
  39        3       35 1
  40        3       36 1
  41        4       37 1
  42        4       38 1
  43        9       39 1
  44        9       40 1
  45       11       41 1
  46       11       42 1
  47       11       43 1
  48       16       44 1
  49       17       45 1
  50       19       46 1
  51       19       47 1
  52       19       48 1
  53       20       49 1
  54       21       50 1
  55       28       51 1
  56       28       52 1
  57       29       53 1
  58       29       54 1
  59       30       55 1
  60       30       56 1

@<TRIPOS>MOLECULE

  56   60
SMALL
USER_CHARGES
@<TRIPOS>ATOM
   1 C1           1.9862     2.1088     8.2760 C.3          1    LIG   0.0000
   2 O2           2.7113     2.7955     7.2666 O.3          1    LIG   0.0000
   3 C3           2.3530     2.4238     5.9438 C.3          1    LIG   0.0000
   4 C4           3.1872     3.2169     4.9511 C.3          1    LIG   0.0000
   5 C5           2.8037     2.8192     3.5357 C.2          1    LIG   0.0000
   6 N6           3.3203     3.3017     2.4340 N.2          1    LIG   0.0000
   7 O7           2.7648     2.7409     1.4446 O.2          1    LIG   0.0000
   8 C8           1.8781     1.8781     1.8781 C.2          1    LIG   0.0000
   9 C9           1.0000     1.0000     1.0000 C.3          1    LIG   0.0000
  10 N10         -0.2538     1.7059     0.6992 N.pl3        1    LIG   0.0000
  11 C11         -0.4851     3.0546     1.2363 C.3          1    LIG   0.0000
  12 C12         -1.2285     1.0933    -0.0994 C.ar         1    LIG   0.0000
  13 N13         -2.4015     1.6654    -0.4168 N.ar         1    LIG   0.0000
  14 C14         -3.3269     1.0532    -1.1796 C.ar         1    LIG   0.0000
  15 C15         -4.5515     1.7789    -1.4538 C.ar         1    LIG   0.0000
  16 C16         -5.1414     2.5315    -0.4435 C.ar         1    LIG   0.0000
  17 C17         -6.3165     3.2258    -0.7113 C.ar         1    LIG   0.0000
  18 C18         -6.8888     3.1618    -1.9772 C.ar         1    LIG   0.0000
  19 C19         -8.1727     3.9231    -2.2609 C.3          1    LIG   0.0000
  20 C20         -6.2915     2.4075    -2.9824 C.ar         1    LIG   0.0000
  21 C21         -5.1166     1.7101    -2.7234 C.ar         1    LIG   0.0000
  22 C22         -3.1405    -0.2327    -1.6996 C.ar         1    LIG   0.0000
  23 C23         -3.8789    -1.1519    -2.5242 C.2          1    LIG   0.0000
  24 C24         -3.2189    -2.3120    -2.7257 C.2          1    LIG   0.0000
  25 S25         -1.7080    -2.2747    -1.9459 S.3          1    LIG   0.0000
  26 C26         -1.9085    -0.7135    -1.3096 C.ar         1    LIG   0.0000
  27 N27         -0.9691    -0.1336    -0.5628 N.ar         1    LIG   0.0000
  28 C28         -3.9699    -3.3372    -3.5358 C.3          1    LIG   0.0000
  29 C29         -4.8939    -2.4320    -4.3179 C.3          1    LIG   0.0000
  30 C30         -5.1770    -1.3737    -3.2752 C.3          1    LIG   0.0000
  31 N31          1.8678     1.8977     3.1879 N.2          1    LIG   0.0000
  32 H            2.2908     2.4207     9.1760 H            1    LIG   0.0000
  33 H            1.0096     2.2965     8.1711 H            1    LIG   0.0000
  34 H            2.1476     1.1255     8.1919 H            1    LIG   0.0000
  35 H            1.3834     2.6176     5.7942 H            1    LIG   0.0000
  36 H            2.5213     1.4466     5.8150 H            1    LIG   0.0000
  37 H            3.0188     4.1942     5.0799 H            1    LIG   0.0000
  38 H            4.1567     3.0232     5.1006 H            1    LIG   0.0000
  39 H            1.4802     0.7954     0.1471 H            1    LIG   0.0000
  40 H            0.7954     0.1471     1.4802 H            1    LIG   0.0000
  41 H            0.3054     3.3371     1.7797 H            1    LIG   0.0000
  42 H           -0.6166     3.6963     0.4807 H            1    LIG   0.0000
  43 H           -1.3014     3.0480     1.8138 H            1    LIG   0.0000
  44 H           -4.7253     2.5728     0.4649 H            1    LIG   0.0000
  45 H           -6.7498     3.7710     0.0064 H            1    LIG   0.0000
  46 H           -8.4473     3.7713    -3.2105 H            1    LIG   0.0000
  47 H           -8.8944     3.5991    -1.6494 H            1    LIG   0.0000
  48 H           -8.0213     4.8999    -2.1098 H            1    LIG   0.0000
  49 H           -6.7072     2.3668    -3.8910 H            1    LIG   0.0000
  50 H           -4.6829     1.1656    -3.4413 H            1    LIG   0.0000
  51 H           -4.4779    -3.9709    -2.9524 H            1    LIG   0.0000
  52 H           -3.3602    -3.8536    -4.1372 H            1    LIG   0.0000
  53 H           -5.7276    -2.9074    -4.5990 H            1    LIG   0.0000
  54 H           -4.4419    -2.0475    -5.1227 H            1    LIG   0.0000
  55 H           -5.4709    -0.5251    -3.7152 H            1    LIG   0.0000
  56 H           -5.8896    -1.6882    -2.6482 H            1    LIG   0.0000
@<TRIPOS>BOND
   1        1        2 1
   2        2        3 1
   3        3        4 1
   4        4        5 1
   5        5        6 2
   6        6        7 1
   7        7        8 1
   8        8        9 1
   9        9       10 1
  10       10       11 1
  11       10       12 1
  12       12       13 ar
  13       13       14 ar
  14       14       15 1
  15       15       16 ar
  16       16       17 ar
  17       17       18 ar
  18       18       19 1
  19       18       20 ar
  20       20       21 ar
  21       21       15 ar
  22       14       22 ar
  23       22       23 1
  24       23       24 2
  25       24       25 1
  26       25       26 1
  27       26       22 ar
  28       26       27 ar
  29       27       12 ar
  30       24       28 1
  31       28       29 1
  32       29       30 1
  33       30       23 1
  34        8       31 2
  35       31        5 1
  36        1       32 1
  37        1       33 1
  38        1       34 1
  39        3       35 1
  40        3       36 1
  41        4       37 1
  42        4       38 1
  43        9       39 1
  44        9       40 1
  45       11       41 1
  46       11       42 1
  47       11       43 1
  48       16       44 1
  49       17       45 1
  50       19       46 1
  51       19       47 1
  52       19       48 1
  53       20       49 1
  54       21       50 1
  55       28       51 1
  56       28       52 1
  57       29       53 1
  58       29       54 1
  59       30       55 1
  60       30       56 1

@<TRIPOS>MOLECULE

  56   60
SMALL
USER_CHARGES
@<TRIPOS>ATOM
   1 C1           6.2611     6.1386    -0.0287 C.3          1    LIG   0.0000
   2 O2           5.8043     5.7201     1.2490 O.3          1    LIG   0.0000
   3 C3           4.7941     4.7232     1.2033 C.3          1    LIG   0.0000
   4 C4           4.3829     4.3532     2.6190 C.3          1    LIG   0.0000
   5 C5           3.3021     3.2865     2.5700 C.2          1    LIG   0.0000
   6 N6           2.7170     2.7356     3.6033 N.2          1    LIG   0.0000
   7 O7           1.8687     1.8926     3.1889 O.2          1    LIG   0.0000
   8 C8           1.8781     1.8781     1.8781 C.2          1    LIG   0.0000
   9 C9           1.0000     1.0000     1.0000 C.3          1    LIG   0.0000
  10 N10         -0.2538     1.7059     0.6992 N.pl3        1    LIG   0.0000
  11 C11         -1.4752     1.3882     1.4530 C.3          1    LIG   0.0000
  12 C12         -0.2847     2.6815    -0.3059 C.ar         1    LIG   0.0000
  13 N13          0.7854     3.0353    -1.0363 N.ar         1    LIG   0.0000
  14 C14          0.7333     3.9824    -1.9920 C.ar         1    LIG   0.0000
  15 C15          1.9575     4.2703    -2.7133 C.ar         1    LIG   0.0000
  16 C16          3.1647     4.3089    -2.0235 C.ar         1    LIG   0.0000
  17 C17          4.3366     4.5859    -2.7198 C.ar         1    LIG   0.0000
  18 C18          4.2922     4.8212    -4.0897 C.ar         1    LIG   0.0000
  19 C19          5.5770     5.1233    -4.8424 C.3          1    LIG   0.0000
  20 C20          3.0803     4.7796    -4.7722 C.ar         1    LIG   0.0000
  21 C21          1.9039     4.5035    -4.0839 C.ar         1    LIG   0.0000
  22 C22         -0.4423     4.6777    -2.2972 C.ar         1    LIG   0.0000
  23 C23         -0.8493     5.7027    -3.2213 C.2          1    LIG   0.0000
  24 C24         -2.1510     6.0339    -3.0869 C.2          1    LIG   0.0000
  25 S25         -2.8775     5.0917    -1.8717 S.3          1    LIG   0.0000
  26 C26         -1.4654     4.2306    -1.4883 C.ar         1    LIG   0.0000
  27 N27         -1.4498     3.2940    -0.5401 N.ar         1    LIG   0.0000
  28 C28         -2.6200     7.1447    -3.9910 C.3          1    LIG   0.0000
  29 C29         -1.6141     7.0166    -5.1120 C.3          1    LIG   0.0000
  30 C30         -0.3820     6.6330    -4.3232 C.3          1    LIG   0.0000
  31 N31          2.7678     2.7379     1.4477 N.2          1    LIG   0.0000
  32 H            6.9675     6.8377     0.0824 H            1    LIG   0.0000
  33 H            6.6419     5.3550    -0.5196 H            1    LIG   0.0000
  34 H            5.4957     6.5178    -0.5486 H            1    LIG   0.0000
  35 H            5.1468     3.9125     0.7359 H            1    LIG   0.0000
  36 H            4.0006     5.0753     0.7070 H            1    LIG   0.0000
  37 H            5.1765     4.0011     3.1153 H            1    LIG   0.0000
  38 H            4.0303     5.1639     3.0864 H            1    LIG   0.0000
  39 H            1.4802     0.7954     0.1471 H            1    LIG   0.0000
  40 H            0.7954     0.1471     1.4802 H            1    LIG   0.0000
  41 H           -1.2759     0.6758     2.1257 H            1    LIG   0.0000
  42 H           -1.7999     2.2090     1.9229 H            1    LIG   0.0000
  43 H           -2.1808     1.0638     0.8230 H            1    LIG   0.0000
  44 H            3.1899     4.1396    -1.0382 H            1    LIG   0.0000
  45 H            5.2109     4.6158    -2.2353 H            1    LIG   0.0000
  46 H            5.3704     5.2665    -5.8103 H            1    LIG   0.0000
  47 H            5.9978     5.9486    -4.4658 H            1    LIG   0.0000
  48 H            6.2083     4.3537    -4.7466 H            1    LIG   0.0000
  49 H            3.0553     4.9481    -5.7576 H            1    LIG   0.0000
  50 H            1.0297     4.4729    -4.5685 H            1    LIG   0.0000
  51 H           -2.5635     8.0367    -3.5424 H            1    LIG   0.0000
  52 H           -3.5545     6.9917    -4.3121 H            1    LIG   0.0000
  53 H           -1.4885     7.8817    -5.5977 H            1    LIG   0.0000
  54 H           -1.8740     6.3035    -5.7631 H            1    LIG   0.0000
  55 H            0.2752     6.1656    -4.9145 H            1    LIG   0.0000
  56 H            0.0440     7.4478    -3.9300 H            1    LIG   0.0000
@<TRIPOS>BOND
   1        1        2 1
   2        2        3 1
   3        3        4 1
   4        4        5 1
   5        5        6 2
   6        6        7 1
   7        7        8 1
   8        8        9 1
   9        9       10 1
  10       10       11 1
  11       10       12 1
  12       12       13 ar
  13       13       14 ar
  14       14       15 1
  15       15       16 ar
  16       16       17 ar
  17       17       18 ar
  18       18       19 1
  19       18       20 ar
  20       20       21 ar
  21       21       15 ar
  22       14       22 ar
  23       22       23 1
  24       23       24 2
  25       24       25 1
  26       25       26 1
  27       26       22 ar
  28       26       27 ar
  29       27       12 ar
  30       24       28 1
  31       28       29 1
  32       29       30 1
  33       30       23 1
  34        8       31 2
  35       31        5 1
  36        1       32 1
  37        1       33 1
  38        1       34 1
  39        3       35 1
  40        3       36 1
  41        4       37 1
  42        4       38 1
  43        9       39 1
  44        9       40 1
  45       11       41 1
  46       11       42 1
  47       11       43 1
  48       16       44 1
  49       17       45 1
  50       19       46 1
  51       19       47 1
  52       19       48 1
  53       20       49 1
  54       21       50 1
  55       28       51 1
  56       28       52 1
  57       29       53 1
  58       29       54 1
  59       30       55 1
  60       30       56 1

@<TRIPOS>MOLECULE

  56   60
SMALL
USER_CHARGES
@<TRIPOS>ATOM
   1 C1           6.2611     6.1386    -0.0287 C.3          1    LIG   0.0000
   2 O2           5.8043     5.7201     1.2490 O.3          1    LIG   0.0000
   3 C3           4.7941     4.7232     1.2033 C.3          1    LIG   0.0000
   4 C4           4.3829     4.3532     2.6190 C.3          1    LIG   0.0000
   5 C5           3.3021     3.2865     2.5700 C.2          1    LIG   0.0000
   6 N6           2.7170     2.7356     3.6033 N.2          1    LIG   0.0000
   7 O7           1.8687     1.8926     3.1889 O.2          1    LIG   0.0000
   8 C8           1.8781     1.8781     1.8781 C.2          1    LIG   0.0000
   9 C9           1.0000     1.0000     1.0000 C.3          1    LIG   0.0000
  10 N10         -0.2538     1.7059     0.6992 N.pl3        1    LIG   0.0000
  11 C11         -1.4752     1.3882     1.4530 C.3          1    LIG   0.0000
  12 C12         -0.2847     2.6815    -0.3059 C.ar         1    LIG   0.0000
  13 N13         -1.3879     3.3677    -0.6468 N.ar         1    LIG   0.0000
  14 C14         -1.3951     4.2955    -1.6227 C.ar         1    LIG   0.0000
  15 C15         -2.6498     4.9698    -1.8926 C.ar         1    LIG   0.0000
  16 C16         -3.8352     4.2423    -1.8729 C.ar         1    LIG   0.0000
  17 C17         -5.0365     4.8936    -2.1328 C.ar         1    LIG   0.0000
  18 C18         -5.0428     6.2565    -2.4094 C.ar         1    LIG   0.0000
  19 C19         -6.3593     6.9599    -2.6926 C.3          1    LIG   0.0000
  20 C20         -3.8524     6.9769    -2.4261 C.ar         1    LIG   0.0000
  21 C21         -2.6468     6.3338    -2.1674 C.ar         1    LIG   0.0000
  22 C22         -0.2517     4.6155    -2.3635 C.ar         1    LIG   0.0000
  23 C23          0.0942     5.5202    -3.4274 C.2          1    LIG   0.0000
  24 C24          1.3887     5.4159    -3.7956 C.2          1    LIG   0.0000
  25 S25          2.1818     4.2527    -2.8417 S.3          1    LIG   0.0000
  26 C26          0.8098     3.8523    -1.9254 C.ar         1    LIG   0.0000
  27 N27          0.8530     2.9328    -0.9615 N.ar         1    LIG   0.0000
  28 C28          1.7945     6.3000    -4.9467 C.3          1    LIG   0.0000
  29 C29          0.7580     7.3930    -4.8196 C.3          1    LIG   0.0000
  30 C30         -0.4361     6.5787    -4.3743 C.3          1    LIG   0.0000
  31 N31          2.7678     2.7379     1.4477 N.2          1    LIG   0.0000
  32 H            6.9675     6.8377     0.0824 H            1    LIG   0.0000
  33 H            6.6419     5.3550    -0.5196 H            1    LIG   0.0000
  34 H            5.4957     6.5178    -0.5486 H            1    LIG   0.0000
  35 H            5.1468     3.9125     0.7359 H            1    LIG   0.0000
  36 H            4.0006     5.0753     0.7070 H            1    LIG   0.0000
  37 H            5.1765     4.0011     3.1153 H            1    LIG   0.0000
  38 H            4.0303     5.1639     3.0864 H            1    LIG   0.0000
  39 H            1.4802     0.7954     0.1471 H            1    LIG   0.0000
  40 H            0.7954     0.1471     1.4802 H            1    LIG   0.0000
  41 H           -1.2759     0.6758     2.1257 H            1    LIG   0.0000
  42 H           -1.7999     2.2090     1.9229 H            1    LIG   0.0000
  43 H           -2.1808     1.0638     0.8230 H            1    LIG   0.0000
  44 H           -3.8239     3.2624    -1.6740 H            1    LIG   0.0000
  45 H           -5.8956     4.3819    -2.1208 H            1    LIG   0.0000
  46 H           -6.1880     7.9290    -2.8705 H            1    LIG   0.0000
  47 H           -6.7932     6.5458    -3.4928 H            1    LIG   0.0000
  48 H           -6.9633     6.8681    -1.9010 H            1    LIG   0.0000
  49 H           -3.8638     7.9570    -2.6242 H            1    LIG   0.0000
  50 H           -1.7878     6.8456    -2.1787 H            1    LIG   0.0000
  51 H            1.7248     5.8231    -5.8229 H            1    LIG   0.0000
  52 H            2.7227     6.6542    -4.8328 H            1    LIG   0.0000
  53 H            0.5907     7.8482    -5.6941 H            1    LIG   0.0000
  54 H            1.0189     8.0730    -4.1344 H            1    LIG   0.0000
  55 H           -1.0970     7.1633    -3.9039 H            1    LIG   0.0000
  56 H           -0.8743     6.1481    -5.1633 H            1    LIG   0.0000
@<TRIPOS>BOND
   1        1        2 1
   2        2        3 1
   3        3        4 1
   4        4        5 1
   5        5        6 2
   6        6        7 1
   7        7        8 1
   8        8        9 1
   9        9       10 1
  10       10       11 1
  11       10       12 1
  12       12       13 ar
  13       13       14 ar
  14       14       15 1
  15       15       16 ar
  16       16       17 ar
  17       17       18 ar
  18       18       19 1
  19       18       20 ar
  20       20       21 ar
  21       21       15 ar
  22       14       22 ar
  23       22       23 1
  24       23       24 2
  25       24       25 1
  26       25       26 1
  27       26       22 ar
  28       26       27 ar
  29       27       12 ar
  30       24       28 1
  31       28       29 1
  32       29       30 1
  33       30       23 1
  34        8       31 2
  35       31        5 1
  36        1       32 1
  37        1       33 1
  38        1       34 1
  39        3       35 1
  40        3       36 1
  41        4       37 1
  42        4       38 1
  43        9       39 1
  44        9       40 1
  45       11       41 1
  46       11       42 1
  47       11       43 1
  48       16       44 1
  49       17       45 1
  50       19       46 1
  51       19       47 1
  52       19       48 1
  53       20       49 1
  54       21       50 1
  55       28       51 1
  56       28       52 1
  57       29       53 1
  58       29       54 1
  59       30       55 1
  60       30       56 1

@<TRIPOS>MOLECULE

  56   60
SMALL
USER_CHARGES
@<TRIPOS>ATOM
   1 C1           6.2611     6.1386    -0.0287 C.3          1    LIG   0.0000
   2 O2           5.8043     5.7201     1.2490 O.3          1    LIG   0.0000
   3 C3           4.7941     4.7232     1.2033 C.3          1    LIG   0.0000
   4 C4           4.3829     4.3532     2.6190 C.3          1    LIG   0.0000
   5 C5           3.3021     3.2865     2.5700 C.2          1    LIG   0.0000
   6 N6           2.7170     2.7356     3.6033 N.2          1    LIG   0.0000
   7 O7           1.8687     1.8926     3.1889 O.2          1    LIG   0.0000
   8 C8           1.8781     1.8781     1.8781 C.2          1    LIG   0.0000
   9 C9           1.0000     1.0000     1.0000 C.3          1    LIG   0.0000
  10 N10         -0.2538     1.7059     0.6992 N.pl3        1    LIG   0.0000
  11 C11         -0.4237     2.3837    -0.5941 C.3          1    LIG   0.0000
  12 C12         -1.2870     1.7327     1.6452 C.ar         1    LIG   0.0000
  13 N13         -1.2156     1.1355     2.8461 N.ar         1    LIG   0.0000
  14 C14         -2.2255     1.1679     3.7361 C.ar         1    LIG   0.0000
  15 C15         -2.0229     0.4871     4.9999 C.ar         1    LIG   0.0000
  16 C16         -1.3669    -0.7394     5.0186 C.ar         1    LIG   0.0000
  17 C17         -1.1752    -1.3889     6.2336 C.ar         1    LIG   0.0000
  18 C18         -1.6383    -0.8119     7.4111 C.ar         1    LIG   0.0000
  19 C19         -1.4249    -1.5284     8.7338 C.3          1    LIG   0.0000
  20 C20         -2.2926     0.4159     7.3835 C.ar         1    LIG   0.0000
  21 C21         -2.4886     1.0722     6.1732 C.ar         1    LIG   0.0000
  22 C22         -3.4340     1.8244     3.4773 C.ar         1    LIG   0.0000
  23 C23         -4.6730     2.0604     4.1696 C.2          1    LIG   0.0000
  24 C24         -5.5497     2.7756     3.4333 C.2          1    LIG   0.0000
  25 S25         -4.8658     3.1797     1.9296 S.3          1    LIG   0.0000
  26 C26         -3.3888     2.3957     2.2232 C.ar         1    LIG   0.0000
  27 N27         -2.4066     2.3883     1.3224 N.ar         1    LIG   0.0000
  28 C28         -6.8886     3.0044     4.0860 C.3          1    LIG   0.0000
  29 C29         -6.4990     2.8795     5.5411 C.3          1    LIG   0.0000
  30 C30         -5.4491     1.7952     5.4446 C.3          1    LIG   0.0000
  31 N31          2.7678     2.7379     1.4477 N.2          1    LIG   0.0000
  32 H            6.9675     6.8377     0.0824 H            1    LIG   0.0000
  33 H            6.6419     5.3550    -0.5196 H            1    LIG   0.0000
  34 H            5.4957     6.5178    -0.5486 H            1    LIG   0.0000
  35 H            5.1468     3.9125     0.7359 H            1    LIG   0.0000
  36 H            4.0006     5.0753     0.7070 H            1    LIG   0.0000
  37 H            5.1765     4.0011     3.1153 H            1    LIG   0.0000
  38 H            4.0303     5.1639     3.0864 H            1    LIG   0.0000
  39 H            1.4802     0.7954     0.1471 H            1    LIG   0.0000
  40 H            0.7954     0.1471     1.4802 H            1    LIG   0.0000
  41 H            0.4035     2.2656    -1.1435 H            1    LIG   0.0000
  42 H           -1.2044     1.9881    -1.0778 H            1    LIG   0.0000
  43 H           -0.5857     3.3585    -0.4408 H            1    LIG   0.0000
  44 H           -1.0369    -1.1494     4.1683 H            1    LIG   0.0000
  45 H           -0.7043    -2.2707     6.2603 H            1    LIG   0.0000
  46 H           -1.8148    -0.9824     9.4753 H            1    LIG   0.0000
  47 H           -1.8743    -2.4213     8.7055 H            1    LIG   0.0000
  48 H           -0.4453    -1.6531     8.8911 H            1    LIG   0.0000
  49 H           -2.6219     0.8262     8.2339 H            1    LIG   0.0000
  50 H           -2.9588     1.9543     6.1465 H            1    LIG   0.0000
  51 H           -7.5549     2.3080     3.8194 H            1    LIG   0.0000
  52 H           -7.2530     3.9118     3.8763 H            1    LIG   0.0000
  53 H           -7.2723     2.5968     6.1087 H            1    LIG   0.0000
  54 H           -6.1185     3.7329     5.8973 H            1    LIG   0.0000
  55 H           -4.8382     1.8344     6.2354 H            1    LIG   0.0000
  56 H           -5.8840     0.8957     5.4037 H            1    LIG   0.0000
@<TRIPOS>BOND
   1        1        2 1
   2        2        3 1
   3        3        4 1
   4        4        5 1
   5        5        6 2
   6        6        7 1
   7        7        8 1
   8        8        9 1
   9        9       10 1
  10       10       11 1
  11       10       12 1
  12       12       13 ar
  13       13       14 ar
  14       14       15 1
  15       15       16 ar
  16       16       17 ar
  17       17       18 ar
  18       18       19 1
  19       18       20 ar
  20       20       21 ar
  21       21       15 ar
  22       14       22 ar
  23       22       23 1
  24       23       24 2
  25       24       25 1
  26       25       26 1
  27       26       22 ar
  28       26       27 ar
  29       27       12 ar
  30       24       28 1
  31       28       29 1
  32       29       30 1
  33       30       23 1
  34        8       31 2
  35       31        5 1
  36        1       32 1
  37        1       33 1
  38        1       34 1
  39        3       35 1
  40        3       36 1
  41        4       37 1
  42        4       38 1
  43        9       39 1
  44        9       40 1
  45       11       41 1
  46       11       42 1
  47       11       43 1
  48       16       44 1
  49       17       45 1
  50       19       46 1
  51       19       47 1
  52       19       48 1
  53       20       49 1
  54       21       50 1
  55       28       51 1
  56       28       52 1
  57       29       53 1
  58       29       54 1
  59       30       55 1
  60       30       56 1

@<TRIPOS>MOLECULE

  56   60
SMALL
USER_CHARGES
@<TRIPOS>ATOM
   1 C1           6.2611     6.1386    -0.0287 C.3          1    LIG   0.0000
   2 O2           5.8043     5.7201     1.2490 O.3          1    LIG   0.0000
   3 C3           4.7941     4.7232     1.2033 C.3          1    LIG   0.0000
   4 C4           4.3829     4.3532     2.6190 C.3          1    LIG   0.0000
   5 C5           3.3021     3.2865     2.5700 C.2          1    LIG   0.0000
   6 N6           2.7170     2.7356     3.6033 N.2          1    LIG   0.0000
   7 O7           1.8687     1.8926     3.1889 O.2          1    LIG   0.0000
   8 C8           1.8781     1.8781     1.8781 C.2          1    LIG   0.0000
   9 C9           1.0000     1.0000     1.0000 C.3          1    LIG   0.0000
  10 N10         -0.2538     1.7059     0.6992 N.pl3        1    LIG   0.0000
  11 C11         -0.4237     2.3837    -0.5941 C.3          1    LIG   0.0000
  12 C12         -1.2870     1.7327     1.6452 C.ar         1    LIG   0.0000
  13 N13         -2.4597     2.3585     1.4526 N.ar         1    LIG   0.0000
  14 C14         -3.4352     2.3776     2.3805 C.ar         1    LIG   0.0000
  15 C15         -4.6568     3.0848     2.0497 C.ar         1    LIG   0.0000
  16 C16         -4.5833     4.2924     1.3631 C.ar         1    LIG   0.0000
  17 C17         -5.7581     4.9675     1.0482 C.ar         1    LIG   0.0000
  18 C18         -6.9874     4.4343     1.4203 C.ar         1    LIG   0.0000
  19 C19         -8.2656     5.1784     1.0726 C.3          1    LIG   0.0000
  20 C20         -7.0518     3.2252     2.1060 C.ar         1    LIG   0.0000
  21 C21         -5.8824     2.5437     2.4250 C.ar         1    LIG   0.0000
  22 C22         -3.3019     1.7490     3.6237 C.ar         1    LIG   0.0000
  23 C23         -4.1064     1.5660     4.8025 C.2          1    LIG   0.0000
  24 C24         -3.4701     0.8571     5.7589 C.2          1    LIG   0.0000
  25 S25         -1.9243     0.3951     5.2211 S.3          1    LIG   0.0000
  26 C26         -2.0653     1.1444     3.7042 C.ar         1    LIG   0.0000
  27 N27         -1.0821     1.1009     2.8055 N.ar         1    LIG   0.0000
  28 C28         -4.2437     0.6830     7.0405 C.3          1    LIG   0.0000
  29 C29         -5.6550     0.8345     6.5208 C.3          1    LIG   0.0000
  30 C30         -5.4364     1.8858     5.4558 C.3          1    LIG   0.0000
  31 N31          2.7678     2.7379     1.4477 N.2          1    LIG   0.0000
  32 H            6.9675     6.8377     0.0824 H            1    LIG   0.0000
  33 H            6.6419     5.3550    -0.5196 H            1    LIG   0.0000
  34 H            5.4957     6.5178    -0.5486 H            1    LIG   0.0000
  35 H            5.1468     3.9125     0.7359 H            1    LIG   0.0000
  36 H            4.0006     5.0753     0.7070 H            1    LIG   0.0000
  37 H            5.1765     4.0011     3.1153 H            1    LIG   0.0000
  38 H            4.0303     5.1639     3.0864 H            1    LIG   0.0000
  39 H            1.4802     0.7954     0.1471 H            1    LIG   0.0000
  40 H            0.7954     0.1471     1.4802 H            1    LIG   0.0000
  41 H            0.4035     2.2656    -1.1435 H            1    LIG   0.0000
  42 H           -1.2044     1.9881    -1.0778 H            1    LIG   0.0000
  43 H           -0.5857     3.3585    -0.4408 H            1    LIG   0.0000
  44 H           -3.6962     4.6708     1.0990 H            1    LIG   0.0000
  45 H           -5.7186     5.8360     0.5542 H            1    LIG   0.0000
  46 H           -9.0535     4.6630     1.4094 H            1    LIG   0.0000
  47 H           -8.2516     6.0826     1.4995 H            1    LIG   0.0000
  48 H           -8.3330     5.2795     0.0800 H            1    LIG   0.0000
  49 H           -7.9390     2.8464     2.3694 H            1    LIG   0.0000
  50 H           -5.9219     1.6747     2.9183 H            1    LIG   0.0000
  51 H           -4.0170     1.3909     7.7095 H            1    LIG   0.0000
  52 H           -4.0924    -0.2188     7.4452 H            1    LIG   0.0000
  53 H           -6.2799     1.1534     7.2335 H            1    LIG   0.0000
  54 H           -6.0005    -0.0199     6.1326 H            1    LIG   0.0000
  55 H           -6.1715     1.8499     4.7788 H            1    LIG   0.0000
  56 H           -5.4083     2.7959     5.8693 H            1    LIG   0.0000
@<TRIPOS>BOND
   1        1        2 1
   2        2        3 1
   3        3        4 1
   4        4        5 1
   5        5        6 2
   6        6        7 1
   7        7        8 1
   8        8        9 1
   9        9       10 1
  10       10       11 1
  11       10       12 1
  12       12       13 ar
  13       13       14 ar
  14       14       15 1
  15       15       16 ar
  16       16       17 ar
  17       17       18 ar
  18       18       19 1
  19       18       20 ar
  20       20       21 ar
  21       21       15 ar
  22       14       22 ar
  23       22       23 1
  24       23       24 2
  25       24       25 1
  26       25       26 1
  27       26       22 ar
  28       26       27 ar
  29       27       12 ar
  30       24       28 1
  31       28       29 1
  32       29       30 1
  33       30       23 1
  34        8       31 2
  35       31        5 1
  36        1       32 1
  37        1       33 1
  38        1       34 1
  39        3       35 1
  40        3       36 1
  41        4       37 1
  42        4       38 1
  43        9       39 1
  44        9       40 1
  45       11       41 1
  46       11       42 1
  47       11       43 1
  48       16       44 1
  49       17       45 1
  50       19       46 1
  51       19       47 1
  52       19       48 1
  53       20       49 1
  54       21       50 1
  55       28       51 1
  56       28       52 1
  57       29       53 1
  58       29       54 1
  59       30       55 1
  60       30       56 1

@<TRIPOS>MOLECULE

  56   60
SMALL
USER_CHARGES
@<TRIPOS>ATOM
   1 C1           6.0678     6.0839     5.4282 C.3          1    LIG   0.0000
   2 O2           5.7028     5.6914     4.1132 O.3          1    LIG   0.0000
   3 C3           4.6926     4.6945     4.0675 C.3          1    LIG   0.0000
   4 C4           4.3829     4.3532     2.6190 C.3          1    LIG   0.0000
   5 C5           3.3021     3.2865     2.5700 C.2          1    LIG   0.0000
   6 N6           2.7170     2.7356     3.6033 N.2          1    LIG   0.0000
   7 O7           1.8687     1.8926     3.1889 O.2          1    LIG   0.0000
   8 C8           1.8781     1.8781     1.8781 C.2          1    LIG   0.0000
   9 C9           1.0000     1.0000     1.0000 C.3          1    LIG   0.0000
  10 N10         -0.2538     1.7059     0.6992 N.pl3        1    LIG   0.0000
  11 C11         -1.4752     1.3882     1.4530 C.3          1    LIG   0.0000
  12 C12         -0.2847     2.6815    -0.3059 C.ar         1    LIG   0.0000
  13 N13         -1.3879     3.3677    -0.6468 N.ar         1    LIG   0.0000
  14 C14         -1.3951     4.2955    -1.6227 C.ar         1    LIG   0.0000
  15 C15         -2.6498     4.9698    -1.8926 C.ar         1    LIG   0.0000
  16 C16         -3.4690     5.3406    -0.8314 C.ar         1    LIG   0.0000
  17 C17         -4.6720     5.9871    -1.0954 C.ar         1    LIG   0.0000
  18 C18         -5.0439     6.2548    -2.4085 C.ar         1    LIG   0.0000
  19 C19         -6.3598     6.9610    -2.6879 C.3          1    LIG   0.0000
  20 C20         -4.2178     5.8813    -3.4641 C.ar         1    LIG   0.0000
  21 C21         -3.0134     5.2345    -3.2093 C.ar         1    LIG   0.0000
  22 C22         -0.2517     4.6155    -2.3635 C.ar         1    LIG   0.0000
  23 C23          0.0942     5.5202    -3.4274 C.2          1    LIG   0.0000
  24 C24          1.3887     5.4159    -3.7956 C.2          1    LIG   0.0000
  25 S25          2.1818     4.2527    -2.8417 S.3          1    LIG   0.0000
  26 C26          0.8098     3.8523    -1.9254 C.ar         1    LIG   0.0000
  27 N27          0.8530     2.9328    -0.9615 N.ar         1    LIG   0.0000
  28 C28          1.7945     6.3000    -4.9467 C.3          1    LIG   0.0000
  29 C29          0.7580     7.3930    -4.8196 C.3          1    LIG   0.0000
  30 C30         -0.4361     6.5787    -4.3743 C.3          1    LIG   0.0000
  31 N31          2.7678     2.7379     1.4477 N.2          1    LIG   0.0000
  32 H            6.7798     6.7846     5.3815 H            1    LIG   0.0000
  33 H            5.2672     6.4532     5.9001 H            1    LIG   0.0000
  34 H            6.4134     5.2904     5.9291 H            1    LIG   0.0000
  35 H            3.8657     5.0372     4.5133 H            1    LIG   0.0000
  36 H            5.0119     3.8744     4.5423 H            1    LIG   0.0000
  37 H            4.0637     5.1733     2.1442 H            1    LIG   0.0000
  38 H            5.2099     4.0105     2.1732 H            1    LIG   0.0000
  39 H            1.4802     0.7954     0.1471 H            1    LIG   0.0000
  40 H            0.7954     0.1471     1.4802 H            1    LIG   0.0000
  41 H           -1.2759     0.6758     2.1257 H            1    LIG   0.0000
  42 H           -1.7999     2.2090     1.9229 H            1    LIG   0.0000
  43 H           -2.1808     1.0638     0.8230 H            1    LIG   0.0000
  44 H           -3.1963     5.1447     0.1105 H            1    LIG   0.0000
  45 H           -5.2694     6.2595    -0.3411 H            1    LIG   0.0000
  46 H           -6.4738     7.0752    -3.6748 H            1    LIG   0.0000
  47 H           -7.1149     6.4143    -2.3262 H            1    LIG   0.0000
  48 H           -6.3567     7.8584    -2.2466 H            1    LIG   0.0000
  49 H           -4.4902     6.0780    -4.4060 H            1    LIG   0.0000
  50 H           -2.4157     4.9628    -3.9635 H            1    LIG   0.0000
  51 H            1.7248     5.8231    -5.8229 H            1    LIG   0.0000
  52 H            2.7227     6.6542    -4.8328 H            1    LIG   0.0000
  53 H            0.5907     7.8482    -5.6941 H            1    LIG   0.0000
  54 H            1.0189     8.0730    -4.1344 H            1    LIG   0.0000
  55 H           -1.0970     7.1633    -3.9039 H            1    LIG   0.0000
  56 H           -0.8743     6.1481    -5.1633 H            1    LIG   0.0000
@<TRIPOS>BOND
   1        1        2 1
   2        2        3 1
   3        3        4 1
   4        4        5 1
   5        5        6 2
   6        6        7 1
   7        7        8 1
   8        8        9 1
   9        9       10 1
  10       10       11 1
  11       10       12 1
  12       12       13 ar
  13       13       14 ar
  14       14       15 1
  15       15       16 ar
  16       16       17 ar
  17       17       18 ar
  18       18       19 1
  19       18       20 ar
  20       20       21 ar
  21       21       15 ar
  22       14       22 ar
  23       22       23 1
  24       23       24 2
  25       24       25 1
  26       25       26 1
  27       26       22 ar
  28       26       27 ar
  29       27       12 ar
  30       24       28 1
  31       28       29 1
  32       29       30 1
  33       30       23 1
  34        8       31 2
  35       31        5 1
  36        1       32 1
  37        1       33 1
  38        1       34 1
  39        3       35 1
  40        3       36 1
  41        4       37 1
  42        4       38 1
  43        9       39 1
  44        9       40 1
  45       11       41 1
  46       11       42 1
  47       11       43 1
  48       16       44 1
  49       17       45 1
  50       19       46 1
  51       19       47 1
  52       19       48 1
  53       20       49 1
  54       21       50 1
  55       28       51 1
  56       28       52 1
  57       29       53 1
  58       29       54 1
  59       30       55 1
  60       30       56 1

@<TRIPOS>MOLECULE

  56   60
SMALL
USER_CHARGES
@<TRIPOS>ATOM
   1 C1           6.0678     6.0839     5.4282 C.3          1    LIG   0.0000
   2 O2           5.7028     5.6914     4.1132 O.3          1    LIG   0.0000
   3 C3           4.6926     4.6945     4.0675 C.3          1    LIG   0.0000
   4 C4           4.3829     4.3532     2.6190 C.3          1    LIG   0.0000
   5 C5           3.3021     3.2865     2.5700 C.2          1    LIG   0.0000
   6 N6           2.7170     2.7356     3.6033 N.2          1    LIG   0.0000
   7 O7           1.8687     1.8926     3.1889 O.2          1    LIG   0.0000
   8 C8           1.8781     1.8781     1.8781 C.2          1    LIG   0.0000
   9 C9           1.0000     1.0000     1.0000 C.3          1    LIG   0.0000
  10 N10         -0.2538     1.7059     0.6992 N.pl3        1    LIG   0.0000
  11 C11         -0.4237     2.3837    -0.5941 C.3          1    LIG   0.0000
  12 C12         -1.2870     1.7327     1.6452 C.ar         1    LIG   0.0000
  13 N13         -2.4597     2.3585     1.4526 N.ar         1    LIG   0.0000
  14 C14         -3.4352     2.3776     2.3805 C.ar         1    LIG   0.0000
  15 C15         -4.6568     3.0848     2.0497 C.ar         1    LIG   0.0000
  16 C16         -5.1786     2.9840     0.7642 C.ar         1    LIG   0.0000
  17 C17         -6.3507     3.6646     0.4514 C.ar         1    LIG   0.0000
  18 C18         -6.9863     4.4356     1.4187 C.ar         1    LIG   0.0000
  19 C19         -8.2659     5.1760     1.0684 C.3          1    LIG   0.0000
  20 C20         -6.4579     4.5301     2.7025 C.ar         1    LIG   0.0000
  21 C21         -5.2866     3.8530     3.0239 C.ar         1    LIG   0.0000
  22 C22         -3.3019     1.7490     3.6237 C.ar         1    LIG   0.0000
  23 C23         -4.1064     1.5660     4.8025 C.2          1    LIG   0.0000
  24 C24         -3.4701     0.8571     5.7589 C.2          1    LIG   0.0000
  25 S25         -1.9243     0.3951     5.2211 S.3          1    LIG   0.0000
  26 C26         -2.0653     1.1444     3.7042 C.ar         1    LIG   0.0000
  27 N27         -1.0821     1.1009     2.8055 N.ar         1    LIG   0.0000
  28 C28         -4.2437     0.6830     7.0405 C.3          1    LIG   0.0000
  29 C29         -5.6550     0.8345     6.5208 C.3          1    LIG   0.0000
  30 C30         -5.4364     1.8858     5.4558 C.3          1    LIG   0.0000
  31 N31          2.7678     2.7379     1.4477 N.2          1    LIG   0.0000
  32 H            6.7798     6.7846     5.3815 H            1    LIG   0.0000
  33 H            5.2672     6.4532     5.9001 H            1    LIG   0.0000
  34 H            6.4134     5.2904     5.9291 H            1    LIG   0.0000
  35 H            3.8657     5.0372     4.5133 H            1    LIG   0.0000
  36 H            5.0119     3.8744     4.5423 H            1    LIG   0.0000
  37 H            4.0637     5.1733     2.1442 H            1    LIG   0.0000
  38 H            5.2099     4.0105     2.1732 H            1    LIG   0.0000
  39 H            1.4802     0.7954     0.1471 H            1    LIG   0.0000
  40 H            0.7954     0.1471     1.4802 H            1    LIG   0.0000
  41 H            0.4035     2.2656    -1.1435 H            1    LIG   0.0000
  42 H           -1.2044     1.9881    -1.0778 H            1    LIG   0.0000
  43 H           -0.5857     3.3585    -0.4408 H            1    LIG   0.0000
  44 H           -4.7165     2.4285     0.0729 H            1    LIG   0.0000
  45 H           -6.7363     3.5995    -0.4690 H            1    LIG   0.0000
  46 H           -8.5904     5.6783     1.8699 H            1    LIG   0.0000
  47 H           -8.0862     5.8178     0.3229 H            1    LIG   0.0000
  48 H           -8.9633     4.5191     0.7819 H            1    LIG   0.0000
  49 H           -6.9206     5.0849     3.3940 H            1    LIG   0.0000
  50 H           -4.9013     3.9175     3.9445 H            1    LIG   0.0000
  51 H           -4.0170     1.3909     7.7095 H            1    LIG   0.0000
  52 H           -4.0924    -0.2188     7.4452 H            1    LIG   0.0000
  53 H           -6.2799     1.1534     7.2335 H            1    LIG   0.0000
  54 H           -6.0005    -0.0199     6.1326 H            1    LIG   0.0000
  55 H           -6.1715     1.8499     4.7788 H            1    LIG   0.0000
  56 H           -5.4083     2.7959     5.8693 H            1    LIG   0.0000
@<TRIPOS>BOND
   1        1        2 1
   2        2        3 1
   3        3        4 1
   4        4        5 1
   5        5        6 2
   6        6        7 1
   7        7        8 1
   8        8        9 1
   9        9       10 1
  10       10       11 1
  11       10       12 1
  12       12       13 ar
  13       13       14 ar
  14       14       15 1
  15       15       16 ar
  16       16       17 ar
  17       17       18 ar
  18       18       19 1
  19       18       20 ar
  20       20       21 ar
  21       21       15 ar
  22       14       22 ar
  23       22       23 1
  24       23       24 2
  25       24       25 1
  26       25       26 1
  27       26       22 ar
  28       26       27 ar
  29       27       12 ar
  30       24       28 1
  31       28       29 1
  32       29       30 1
  33       30       23 1
  34        8       31 2
  35       31        5 1
  36        1       32 1
  37        1       33 1
  38        1       34 1
  39        3       35 1
  40        3       36 1
  41        4       37 1
  42        4       38 1
  43        9       39 1
  44        9       40 1
  45       11       41 1
  46       11       42 1
  47       11       43 1
  48       16       44 1
  49       17       45 1
  50       19       46 1
  51       19       47 1
  52       19       48 1
  53       20       49 1
  54       21       50 1
  55       28       51 1
  56       28       52 1
  57       29       53 1
  58       29       54 1
  59       30       55 1
  60       30       56 1

@<TRIPOS>MOLECULE

  56   60
SMALL
USER_CHARGES
@<TRIPOS>ATOM
   1 C1           6.0678     6.0839     5.4282 C.3          1    LIG   0.0000
   2 O2           5.7028     5.6914     4.1132 O.3          1    LIG   0.0000
   3 C3           4.6926     4.6945     4.0675 C.3          1    LIG   0.0000
   4 C4           4.3829     4.3532     2.6190 C.3          1    LIG   0.0000
   5 C5           3.3021     3.2865     2.5700 C.2          1    LIG   0.0000
   6 N6           2.7170     2.7356     3.6033 N.2          1    LIG   0.0000
   7 O7           1.8687     1.8926     3.1889 O.2          1    LIG   0.0000
   8 C8           1.8781     1.8781     1.8781 C.2          1    LIG   0.0000
   9 C9           1.0000     1.0000     1.0000 C.3          1    LIG   0.0000
  10 N10         -0.2538     1.7059     0.6992 N.pl3        1    LIG   0.0000
  11 C11         -0.4851     3.0546     1.2363 C.3          1    LIG   0.0000
  12 C12         -1.2285     1.0933    -0.0994 C.ar         1    LIG   0.0000
  13 N13         -1.0944    -0.1318    -0.6333 N.ar         1    LIG   0.0000
  14 C14         -2.0420    -0.6969    -1.4051 C.ar         1    LIG   0.0000
  15 C15         -1.7786    -2.0269    -1.9185 C.ar         1    LIG   0.0000
  16 C16         -0.5006    -2.3469    -2.3650 C.ar         1    LIG   0.0000
  17 C17         -0.2528    -3.6241    -2.8570 C.ar         1    LIG   0.0000
  18 C18         -1.2771    -4.5637    -2.8994 C.ar         1    LIG   0.0000
  19 C19         -0.9978    -5.9564    -3.4387 C.3          1    LIG   0.0000
  20 C20         -2.5524    -4.2355    -2.4497 C.ar         1    LIG   0.0000
  21 C21         -2.8091    -2.9610    -1.9563 C.ar         1    LIG   0.0000
  22 C22         -3.2426    -0.0486    -1.7162 C.ar         1    LIG   0.0000
  23 C23         -4.4320    -0.3411    -2.4712 C.2          1    LIG   0.0000
  24 C24         -5.3188     0.6764    -2.4554 C.2          1    LIG   0.0000
  25 S25         -4.7263     1.9613    -1.5118 S.3          1    LIG   0.0000
  26 C26         -3.2655     1.1923    -1.1155 C.ar         1    LIG   0.0000
  27 N27         -2.3507     1.7778    -0.3430 N.ar         1    LIG   0.0000
  28 C28         -6.5607     0.4490    -3.2783 C.3          1    LIG   0.0000
  29 C29         -6.6005    -1.0620    -3.2859 C.3          1    LIG   0.0000
  30 C30         -5.1208    -1.3682    -3.3480 C.3          1    LIG   0.0000
  31 N31          2.7678     2.7379     1.4477 N.2          1    LIG   0.0000
  32 H            6.7798     6.7846     5.3815 H            1    LIG   0.0000
  33 H            5.2672     6.4532     5.9001 H            1    LIG   0.0000
  34 H            6.4134     5.2904     5.9291 H            1    LIG   0.0000
  35 H            3.8657     5.0372     4.5133 H            1    LIG   0.0000
  36 H            5.0119     3.8744     4.5423 H            1    LIG   0.0000
  37 H            4.0637     5.1733     2.1442 H            1    LIG   0.0000
  38 H            5.2099     4.0105     2.1732 H            1    LIG   0.0000
  39 H            1.4802     0.7954     0.1471 H            1    LIG   0.0000
  40 H            0.7954     0.1471     1.4802 H            1    LIG   0.0000
  41 H            0.3054     3.3371     1.7797 H            1    LIG   0.0000
  42 H           -0.6166     3.6963     0.4807 H            1    LIG   0.0000
  43 H           -1.3014     3.0480     1.8138 H            1    LIG   0.0000
  44 H            0.2315    -1.6665    -2.3326 H            1    LIG   0.0000
  45 H            0.6619    -3.8667    -3.1803 H            1    LIG   0.0000
  46 H           -1.8343    -6.5030    -3.3995 H            1    LIG   0.0000
  47 H           -0.6867    -5.8905    -4.3868 H            1    LIG   0.0000
  48 H           -0.2885    -6.3923    -2.8846 H            1    LIG   0.0000
  49 H           -3.2843    -4.9162    -2.4814 H            1    LIG   0.0000
  50 H           -3.7236    -2.7186    -1.6323 H            1    LIG   0.0000
  51 H           -6.4673     0.8221    -4.2014 H            1    LIG   0.0000
  52 H           -7.3714     0.8390    -2.8416 H            1    LIG   0.0000
  53 H           -7.0858    -1.4157    -4.0856 H            1    LIG   0.0000
  54 H           -7.0194    -1.4257    -2.4540 H            1    LIG   0.0000
  55 H           -4.9440    -2.2904    -3.0041 H            1    LIG   0.0000
  56 H           -4.7919    -1.2949    -4.2896 H            1    LIG   0.0000
@<TRIPOS>BOND
   1        1        2 1
   2        2        3 1
   3        3        4 1
   4        4        5 1
   5        5        6 2
   6        6        7 1
   7        7        8 1
   8        8        9 1
   9        9       10 1
  10       10       11 1
  11       10       12 1
  12       12       13 ar
  13       13       14 ar
  14       14       15 1
  15       15       16 ar
  16       16       17 ar
  17       17       18 ar
  18       18       19 1
  19       18       20 ar
  20       20       21 ar
  21       21       15 ar
  22       14       22 ar
  23       22       23 1
  24       23       24 2
  25       24       25 1
  26       25       26 1
  27       26       22 ar
  28       26       27 ar
  29       27       12 ar
  30       24       28 1
  31       28       29 1
  32       29       30 1
  33       30       23 1
  34        8       31 2
  35       31        5 1
  36        1       32 1
  37        1       33 1
  38        1       34 1
  39        3       35 1
  40        3       36 1
  41        4       37 1
  42        4       38 1
  43        9       39 1
  44        9       40 1
  45       11       41 1
  46       11       42 1
  47       11       43 1
  48       16       44 1
  49       17       45 1
  50       19       46 1
  51       19       47 1
  52       19       48 1
  53       20       49 1
  54       21       50 1
  55       28       51 1
  56       28       52 1
  57       29       53 1
  58       29       54 1
  59       30       55 1
  60       30       56 1

@<TRIPOS>MOLECULE

  56   60
SMALL
USER_CHARGES
@<TRIPOS>ATOM
   1 C1           6.0678     6.0839     5.4282 C.3          1    LIG   0.0000
   2 O2           5.7028     5.6914     4.1132 O.3          1    LIG   0.0000
   3 C3           4.6926     4.6945     4.0675 C.3          1    LIG   0.0000
   4 C4           4.3829     4.3532     2.6190 C.3          1    LIG   0.0000
   5 C5           3.3021     3.2865     2.5700 C.2          1    LIG   0.0000
   6 N6           2.7170     2.7356     3.6033 N.2          1    LIG   0.0000
   7 O7           1.8687     1.8926     3.1889 O.2          1    LIG   0.0000
   8 C8           1.8781     1.8781     1.8781 C.2          1    LIG   0.0000
   9 C9           1.0000     1.0000     1.0000 C.3          1    LIG   0.0000
  10 N10         -0.2538     1.7059     0.6992 N.pl3        1    LIG   0.0000
  11 C11         -0.4851     3.0546     1.2363 C.3          1    LIG   0.0000
  12 C12         -1.2285     1.0933    -0.0994 C.ar         1    LIG   0.0000
  13 N13         -2.4015     1.6654    -0.4168 N.ar         1    LIG   0.0000
  14 C14         -3.3269     1.0532    -1.1796 C.ar         1    LIG   0.0000
  15 C15         -4.5515     1.7789    -1.4538 C.ar         1    LIG   0.0000
  16 C16         -5.1414     2.5315    -0.4435 C.ar         1    LIG   0.0000
  17 C17         -6.3165     3.2258    -0.7113 C.ar         1    LIG   0.0000
  18 C18         -6.8888     3.1618    -1.9772 C.ar         1    LIG   0.0000
  19 C19         -8.1727     3.9231    -2.2609 C.3          1    LIG   0.0000
  20 C20         -6.2915     2.4075    -2.9824 C.ar         1    LIG   0.0000
  21 C21         -5.1166     1.7101    -2.7234 C.ar         1    LIG   0.0000
  22 C22         -3.1405    -0.2327    -1.6996 C.ar         1    LIG   0.0000
  23 C23         -3.8789    -1.1519    -2.5242 C.2          1    LIG   0.0000
  24 C24         -3.2189    -2.3120    -2.7257 C.2          1    LIG   0.0000
  25 S25         -1.7080    -2.2747    -1.9459 S.3          1    LIG   0.0000
  26 C26         -1.9085    -0.7135    -1.3096 C.ar         1    LIG   0.0000
  27 N27         -0.9691    -0.1336    -0.5628 N.ar         1    LIG   0.0000
  28 C28         -3.9699    -3.3372    -3.5358 C.3          1    LIG   0.0000
  29 C29         -4.8939    -2.4320    -4.3179 C.3          1    LIG   0.0000
  30 C30         -5.1770    -1.3737    -3.2752 C.3          1    LIG   0.0000
  31 N31          2.7678     2.7379     1.4477 N.2          1    LIG   0.0000
  32 H            6.7798     6.7846     5.3815 H            1    LIG   0.0000
  33 H            5.2672     6.4532     5.9001 H            1    LIG   0.0000
  34 H            6.4134     5.2904     5.9291 H            1    LIG   0.0000
  35 H            3.8657     5.0372     4.5133 H            1    LIG   0.0000
  36 H            5.0119     3.8744     4.5423 H            1    LIG   0.0000
  37 H            4.0637     5.1733     2.1442 H            1    LIG   0.0000
  38 H            5.2099     4.0105     2.1732 H            1    LIG   0.0000
  39 H            1.4802     0.7954     0.1471 H            1    LIG   0.0000
  40 H            0.7954     0.1471     1.4802 H            1    LIG   0.0000
  41 H            0.3054     3.3371     1.7797 H            1    LIG   0.0000
  42 H           -0.6166     3.6963     0.4807 H            1    LIG   0.0000
  43 H           -1.3014     3.0480     1.8138 H            1    LIG   0.0000
  44 H           -4.7253     2.5728     0.4649 H            1    LIG   0.0000
  45 H           -6.7498     3.7710     0.0064 H            1    LIG   0.0000
  46 H           -8.4473     3.7713    -3.2105 H            1    LIG   0.0000
  47 H           -8.8944     3.5991    -1.6494 H            1    LIG   0.0000
  48 H           -8.0213     4.8999    -2.1098 H            1    LIG   0.0000
  49 H           -6.7072     2.3668    -3.8910 H            1    LIG   0.0000
  50 H           -4.6829     1.1656    -3.4413 H            1    LIG   0.0000
  51 H           -4.4779    -3.9709    -2.9524 H            1    LIG   0.0000
  52 H           -3.3602    -3.8536    -4.1372 H            1    LIG   0.0000
  53 H           -5.7276    -2.9074    -4.5990 H            1    LIG   0.0000
  54 H           -4.4419    -2.0475    -5.1227 H            1    LIG   0.0000
  55 H           -5.4709    -0.5251    -3.7152 H            1    LIG   0.0000
  56 H           -5.8896    -1.6882    -2.6482 H            1    LIG   0.0000
@<TRIPOS>BOND
   1        1        2 1
   2        2        3 1
   3        3        4 1
   4        4        5 1
   5        5        6 2
   6        6        7 1
   7        7        8 1
   8        8        9 1
   9        9       10 1
  10       10       11 1
  11       10       12 1
  12       12       13 ar
  13       13       14 ar
  14       14       15 1
  15       15       16 ar
  16       16       17 ar
  17       17       18 ar
  18       18       19 1
  19       18       20 ar
  20       20       21 ar
  21       21       15 ar
  22       14       22 ar
  23       22       23 1
  24       23       24 2
  25       24       25 1
  26       25       26 1
  27       26       22 ar
  28       26       27 ar
  29       27       12 ar
  30       24       28 1
  31       28       29 1
  32       29       30 1
  33       30       23 1
  34        8       31 2
  35       31        5 1
  36        1       32 1
  37        1       33 1
  38        1       34 1
  39        3       35 1
  40        3       36 1
  41        4       37 1
  42        4       38 1
  43        9       39 1
  44        9       40 1
  45       11       41 1
  46       11       42 1
  47       11       43 1
  48       16       44 1
  49       17       45 1
  50       19       46 1
  51       19       47 1
  52       19       48 1
  53       20       49 1
  54       21       50 1
  55       28       51 1
  56       28       52 1
  57       29       53 1
  58       29       54 1
  59       30       55 1
  60       30       56 1

