@<TRIPOS>MOLECULE
*****
 56 60 0 0 0
SMALL
USER_CHARGES

@<TRIPOS>ATOM
      1 C1          6.2611    6.1386   -0.0287 C.3     1  LIG1        0.0000
      2 O2          5.8043    5.7201    1.2490 O.3     1  LIG1        0.0000
      3 C3          4.7941    4.7232    1.2033 C.3     1  LIG1        0.0000
      4 C4          4.3829    4.3532    2.6190 C.3     1  LIG1        0.0000
      5 C5          3.3021    3.2865    2.5700 C.2     1  LIG1        0.0000
      6 N6          2.7170    2.7356    3.6033 N.2     1  LIG1        0.0000
      7 O7          1.8687    1.8926    3.1889 O.2     1  LIG1        0.0000
      8 C8          1.8781    1.8781    1.8781 C.2     1  LIG1        0.0000
      9 C9          1.0000    1.0000    1.0000 C.3     1  LIG1        0.0000
     10 N10        -0.2538    1.7059    0.6992 N.pl3   1  LIG1        0.0000
     11 C11        -0.4237    2.3837   -0.5941 C.3     1  LIG1        0.0000
     12 C12        -1.2870    1.7327    1.6452 C.ar    1  LIG1        0.0000
     13 N13        -1.2156    1.1355    2.8461 N.ar    1  LIG1        0.0000
     14 C14        -2.2255    1.1679    3.7361 C.ar    1  LIG1        0.0000
     15 C15        -2.0229    0.4871    4.9999 C.ar    1  LIG1        0.0000
     16 C16        -1.3669   -0.7394    5.0186 C.ar    1  LIG1        0.0000
     17 C17        -1.1752   -1.3889    6.2336 C.ar    1  LIG1        0.0000
     18 C18        -1.6383   -0.8119    7.4111 C.ar    1  LIG1        0.0000
     19 C19        -1.4249   -1.5284    8.7338 C.3     1  LIG1        0.0000
     20 C20        -2.2926    0.4159    7.3835 C.ar    1  LIG1        0.0000
     21 C21        -2.4886    1.0722    6.1732 C.ar    1  LIG1        0.0000
     22 C22        -3.4340    1.8244    3.4773 C.ar    1  LIG1        0.0000
     23 C23        -4.6730    2.0604    4.1696 C.2     1  LIG1        0.0000
     24 C24        -5.5497    2.7756    3.4333 C.2     1  LIG1        0.0000
     25 S25        -4.8658    3.1797    1.9296 S.3     1  LIG1        0.0000
     26 C26        -3.3888    2.3957    2.2232 C.ar    1  LIG1        0.0000
     27 N27        -2.4066    2.3883    1.3224 N.ar    1  LIG1        0.0000
     28 C28        -6.8886    3.0044    4.0860 C.3     1  LIG1        0.0000
     29 C29        -6.4990    2.8795    5.5411 C.3     1  LIG1        0.0000
     30 C30        -5.4491    1.7952    5.4446 C.3     1  LIG1        0.0000
     31 N31         2.7678    2.7379    1.4477 N.2     1  LIG1        0.0000
     32 H           6.9675    6.8377    0.0824 H       1  LIG1        0.0000
     33 H           6.6419    5.3550   -0.5196 H       1  LIG1        0.0000
     34 H           5.4957    6.5178   -0.5486 H       1  LIG1        0.0000
     35 H           5.1468    3.9125    0.7359 H       1  LIG1        0.0000
     36 H           4.0006    5.0753    0.7070 H       1  LIG1        0.0000
     37 H           5.1765    4.0011    3.1153 H       1  LIG1        0.0000
     38 H           4.0303    5.1639    3.0864 H       1  LIG1        0.0000
     39 H           1.4802    0.7954    0.1471 H       1  LIG1        0.0000
     40 H           0.7954    0.1471    1.4802 H       1  LIG1        0.0000
     41 H           0.4035    2.2656   -1.1435 H       1  LIG1        0.0000
     42 H          -1.2044    1.9881   -1.0778 H       1  LIG1        0.0000
     43 H          -0.5857    3.3585   -0.4408 H       1  LIG1        0.0000
     44 H          -1.0369   -1.1494    4.1683 H       1  LIG1        0.0000
     45 H          -0.7043   -2.2707    6.2603 H       1  LIG1        0.0000
     46 H          -1.8148   -0.9824    9.4753 H       1  LIG1        0.0000
     47 H          -1.8743   -2.4213    8.7055 H       1  LIG1        0.0000
     48 H          -0.4453   -1.6531    8.8911 H       1  LIG1        0.0000
     49 H          -2.6219    0.8262    8.2339 H       1  LIG1        0.0000
     50 H          -2.9588    1.9543    6.1465 H       1  LIG1        0.0000
     51 H          -7.5549    2.3080    3.8194 H       1  LIG1        0.0000
     52 H          -7.2530    3.9118    3.8763 H       1  LIG1        0.0000
     53 H          -7.2723    2.5968    6.1087 H       1  LIG1        0.0000
     54 H          -6.1185    3.7329    5.8973 H       1  LIG1        0.0000
     55 H          -4.8382    1.8344    6.2354 H       1  LIG1        0.0000
     56 H          -5.8840    0.8957    5.4037 H       1  LIG1        0.0000
@<TRIPOS>BOND
     1     1     2    1
     2     2     3    1
     3     3     4    1
     4     4     5    1
     5     5     6    2
     6     6     7    1
     7     7     8    1
     8     8     9    1
     9     9    10    1
    10    10    11    1
    11    10    12    1
    12    12    13   ar
    13    13    14   ar
    14    14    15    1
    15    15    16   ar
    16    16    17   ar
    17    17    18   ar
    18    18    19    1
    19    18    20   ar
    20    20    21   ar
    21    21    15   ar
    22    14    22   ar
    23    22    23    1
    24    23    24    2
    25    24    25    1
    26    25    26    1
    27    26    22   ar
    28    26    27   ar
    29    27    12   ar
    30    24    28    1
    31    28    29    1
    32    29    30    1
    33    30    23    1
    34     8    31    2
    35    31     5    1
    36     1    32    1
    37     1    33    1
    38     1    34    1
    39     3    35    1
    40     3    36    1
    41     4    37    1
    42     4    38    1
    43     9    39    1
    44     9    40    1
    45    11    41    1
    46    11    42    1
    47    11    43    1
    48    16    44    1
    49    17    45    1
    50    19    46    1
    51    19    47    1
    52    19    48    1
    53    20    49    1
    54    21    50    1
    55    28    51    1
    56    28    52    1
    57    29    53    1
    58    29    54    1
    59    30    55    1
    60    30    56    1
