@<TRIPOS>MOLECULE
*****
 56 60 0 0 0
SMALL
USER_CHARGES

@<TRIPOS>ATOM
      1 C1          1.9862    2.1088    8.2760 C.3     1  LIG1        0.0000
      2 O2          2.7113    2.7955    7.2666 O.3     1  LIG1        0.0000
      3 C3          2.3530    2.4238    5.9438 C.3     1  LIG1        0.0000
      4 C4          3.1872    3.2169    4.9511 C.3     1  LIG1        0.0000
      5 C5          2.8037    2.8192    3.5357 C.2     1  LIG1        0.0000
      6 N6          3.3203    3.3017    2.4340 N.2     1  LIG1        0.0000
      7 O7          2.7648    2.7409    1.4446 O.2     1  LIG1        0.0000
      8 C8          1.8781    1.8781    1.8781 C.2     1  LIG1        0.0000
      9 C9          1.0000    1.0000    1.0000 C.3     1  LIG1        0.0000
     10 N10        -0.2538    1.7059    0.6992 N.pl3   1  LIG1        0.0000
     11 C11        -1.4752    1.3882    1.4530 C.3     1  LIG1        0.0000
     12 C12        -0.2847    2.6815   -0.3059 C.ar    1  LIG1        0.0000
     13 N13        -1.3879    3.3677   -0.6468 N.ar    1  LIG1        0.0000
     14 C14        -1.3951    4.2955   -1.6227 C.ar    1  LIG1        0.0000
     15 C15        -2.6498    4.9698   -1.8926 C.ar    1  LIG1        0.0000
     16 C16        -3.8352    4.2423   -1.8729 C.ar    1  LIG1        0.0000
     17 C17        -5.0365    4.8936   -2.1328 C.ar    1  LIG1        0.0000
     18 C18        -5.0428    6.2565   -2.4094 C.ar    1  LIG1        0.0000
     19 C19        -6.3593    6.9599   -2.6926 C.3     1  LIG1        0.0000
     20 C20        -3.8524    6.9769   -2.4261 C.ar    1  LIG1        0.0000
     21 C21        -2.6468    6.3338   -2.1674 C.ar    1  LIG1        0.0000
     22 C22        -0.2517    4.6155   -2.3635 C.ar    1  LIG1        0.0000
     23 C23         0.0942    5.5202   -3.4274 C.2     1  LIG1        0.0000
     24 C24         1.3887    5.4159   -3.7956 C.2     1  LIG1        0.0000
     25 S25         2.1818    4.2527   -2.8417 S.3     1  LIG1        0.0000
     26 C26         0.8098    3.8523   -1.9254 C.ar    1  LIG1        0.0000
     27 N27         0.8530    2.9328   -0.9615 N.ar    1  LIG1        0.0000
     28 C28         1.7945    6.3000   -4.9467 C.3     1  LIG1        0.0000
     29 C29         0.7580    7.3930   -4.8196 C.3     1  LIG1        0.0000
     30 C30        -0.4361    6.5787   -4.3743 C.3     1  LIG1        0.0000
     31 N31         1.8678    1.8977    3.1879 N.2     1  LIG1        0.0000
     32 H           2.2908    2.4207    9.1760 H       1  LIG1        0.0000
     33 H           1.0096    2.2965    8.1711 H       1  LIG1        0.0000
     34 H           2.1476    1.1255    8.1919 H       1  LIG1        0.0000
     35 H           1.3834    2.6176    5.7942 H       1  LIG1        0.0000
     36 H           2.5213    1.4466    5.8150 H       1  LIG1        0.0000
     37 H           3.0188    4.1942    5.0799 H       1  LIG1        0.0000
     38 H           4.1567    3.0232    5.1006 H       1  LIG1        0.0000
     39 H           1.4802    0.7954    0.1471 H       1  LIG1        0.0000
     40 H           0.7954    0.1471    1.4802 H       1  LIG1        0.0000
     41 H          -1.2759    0.6758    2.1257 H       1  LIG1        0.0000
     42 H          -1.7999    2.2090    1.9229 H       1  LIG1        0.0000
     43 H          -2.1808    1.0638    0.8230 H       1  LIG1        0.0000
     44 H          -3.8239    3.2624   -1.6740 H       1  LIG1        0.0000
     45 H          -5.8956    4.3819   -2.1208 H       1  LIG1        0.0000
     46 H          -6.1880    7.9290   -2.8705 H       1  LIG1        0.0000
     47 H          -6.7932    6.5458   -3.4928 H       1  LIG1        0.0000
     48 H          -6.9633    6.8681   -1.9010 H       1  LIG1        0.0000
     49 H          -3.8638    7.9570   -2.6242 H       1  LIG1        0.0000
     50 H          -1.7878    6.8456   -2.1787 H       1  LIG1        0.0000
     51 H           1.7248    5.8231   -5.8229 H       1  LIG1        0.0000
     52 H           2.7227    6.6542   -4.8328 H       1  LIG1        0.0000
     53 H           0.5907    7.8482   -5.6941 H       1  LIG1        0.0000
     54 H           1.0189    8.0730   -4.1344 H       1  LIG1        0.0000
     55 H          -1.0970    7.1633   -3.9039 H       1  LIG1        0.0000
     56 H          -0.8743    6.1481   -5.1633 H       1  LIG1        0.0000
@<TRIPOS>BOND
     1     1     2    1
     2     2     3    1
     3     3     4    1
     4     4     5    1
     5     5     6    2
     6     6     7    1
     7     7     8    1
     8     8     9    1
     9     9    10    1
    10    10    11    1
    11    10    12    1
    12    12    13   ar
    13    13    14   ar
    14    14    15    1
    15    15    16   ar
    16    16    17   ar
    17    17    18   ar
    18    18    19    1
    19    18    20   ar
    20    20    21   ar
    21    21    15   ar
    22    14    22   ar
    23    22    23    1
    24    23    24    2
    25    24    25    1
    26    25    26    1
    27    26    22   ar
    28    26    27   ar
    29    27    12   ar
    30    24    28    1
    31    28    29    1
    32    29    30    1
    33    30    23    1
    34     8    31    2
    35    31     5    1
    36     1    32    1
    37     1    33    1
    38     1    34    1
    39     3    35    1
    40     3    36    1
    41     4    37    1
    42     4    38    1
    43     9    39    1
    44     9    40    1
    45    11    41    1
    46    11    42    1
    47    11    43    1
    48    16    44    1
    49    17    45    1
    50    19    46    1
    51    19    47    1
    52    19    48    1
    53    20    49    1
    54    21    50    1
    55    28    51    1
    56    28    52    1
    57    29    53    1
    58    29    54    1
    59    30    55    1
    60    30    56    1
