@<TRIPOS>MOLECULE
*****
 56 60 0 0 0
SMALL
USER_CHARGES

@<TRIPOS>ATOM
      1 C1          6.0678    6.0839    5.4282 C.3     1  LIG1        0.0000
      2 O2          5.7028    5.6914    4.1132 O.3     1  LIG1        0.0000
      3 C3          4.6926    4.6945    4.0675 C.3     1  LIG1        0.0000
      4 C4          4.3829    4.3532    2.6190 C.3     1  LIG1        0.0000
      5 C5          3.3021    3.2865    2.5700 C.2     1  LIG1        0.0000
      6 N6          2.7170    2.7356    3.6033 N.2     1  LIG1        0.0000
      7 O7          1.8687    1.8926    3.1889 O.2     1  LIG1        0.0000
      8 C8          1.8781    1.8781    1.8781 C.2     1  LIG1        0.0000
      9 C9          1.0000    1.0000    1.0000 C.3     1  LIG1        0.0000
     10 N10        -0.2538    1.7059    0.6992 N.pl3   1  LIG1        0.0000
     11 C11        -0.4237    2.3837   -0.5941 C.3     1  LIG1        0.0000
     12 C12        -1.2870    1.7327    1.6452 C.ar    1  LIG1        0.0000
     13 N13        -2.4597    2.3585    1.4526 N.ar    1  LIG1        0.0000
     14 C14        -3.4352    2.3776    2.3805 C.ar    1  LIG1        0.0000
     15 C15        -4.6568    3.0848    2.0497 C.ar    1  LIG1        0.0000
     16 C16        -5.1786    2.9840    0.7642 C.ar    1  LIG1        0.0000
     17 C17        -6.3507    3.6646    0.4514 C.ar    1  LIG1        0.0000
     18 C18        -6.9863    4.4356    1.4187 C.ar    1  LIG1        0.0000
     19 C19        -8.2659    5.1760    1.0684 C.3     1  LIG1        0.0000
     20 C20        -6.4579    4.5301    2.7025 C.ar    1  LIG1        0.0000
     21 C21        -5.2866    3.8530    3.0239 C.ar    1  LIG1        0.0000
     22 C22        -3.3019    1.7490    3.6237 C.ar    1  LIG1        0.0000
     23 C23        -4.1064    1.5660    4.8025 C.2     1  LIG1        0.0000
     24 C24        -3.4701    0.8571    5.7589 C.2     1  LIG1        0.0000
     25 S25        -1.9243    0.3951    5.2211 S.3     1  LIG1        0.0000
     26 C26        -2.0653    1.1444    3.7042 C.ar    1  LIG1        0.0000
     27 N27        -1.0821    1.1009    2.8055 N.ar    1  LIG1        0.0000
     28 C28        -4.2437    0.6830    7.0405 C.3     1  LIG1        0.0000
     29 C29        -5.6550    0.8345    6.5208 C.3     1  LIG1        0.0000
     30 C30        -5.4364    1.8858    5.4558 C.3     1  LIG1        0.0000
     31 N31         2.7678    2.7379    1.4477 N.2     1  LIG1        0.0000
     32 H           6.7798    6.7846    5.3815 H       1  LIG1        0.0000
     33 H           5.2672    6.4532    5.9001 H       1  LIG1        0.0000
     34 H           6.4134    5.2904    5.9291 H       1  LIG1        0.0000
     35 H           3.8657    5.0372    4.5133 H       1  LIG1        0.0000
     36 H           5.0119    3.8744    4.5423 H       1  LIG1        0.0000
     37 H           4.0637    5.1733    2.1442 H       1  LIG1        0.0000
     38 H           5.2099    4.0105    2.1732 H       1  LIG1        0.0000
     39 H           1.4802    0.7954    0.1471 H       1  LIG1        0.0000
     40 H           0.7954    0.1471    1.4802 H       1  LIG1        0.0000
     41 H           0.4035    2.2656   -1.1435 H       1  LIG1        0.0000
     42 H          -1.2044    1.9881   -1.0778 H       1  LIG1        0.0000
     43 H          -0.5857    3.3585   -0.4408 H       1  LIG1        0.0000
     44 H          -4.7165    2.4285    0.0729 H       1  LIG1        0.0000
     45 H          -6.7363    3.5995   -0.4690 H       1  LIG1        0.0000
     46 H          -8.5904    5.6783    1.8699 H       1  LIG1        0.0000
     47 H          -8.0862    5.8178    0.3229 H       1  LIG1        0.0000
     48 H          -8.9633    4.5191    0.7819 H       1  LIG1        0.0000
     49 H          -6.9206    5.0849    3.3940 H       1  LIG1        0.0000
     50 H          -4.9013    3.9175    3.9445 H       1  LIG1        0.0000
     51 H          -4.0170    1.3909    7.7095 H       1  LIG1        0.0000
     52 H          -4.0924   -0.2188    7.4452 H       1  LIG1        0.0000
     53 H          -6.2799    1.1534    7.2335 H       1  LIG1        0.0000
     54 H          -6.0005   -0.0199    6.1326 H       1  LIG1        0.0000
     55 H          -6.1715    1.8499    4.7788 H       1  LIG1        0.0000
     56 H          -5.4083    2.7959    5.8693 H       1  LIG1        0.0000
@<TRIPOS>BOND
     1     1     2    1
     2     2     3    1
     3     3     4    1
     4     4     5    1
     5     5     6    2
     6     6     7    1
     7     7     8    1
     8     8     9    1
     9     9    10    1
    10    10    11    1
    11    10    12    1
    12    12    13   ar
    13    13    14   ar
    14    14    15    1
    15    15    16   ar
    16    16    17   ar
    17    17    18   ar
    18    18    19    1
    19    18    20   ar
    20    20    21   ar
    21    21    15   ar
    22    14    22   ar
    23    22    23    1
    24    23    24    2
    25    24    25    1
    26    25    26    1
    27    26    22   ar
    28    26    27   ar
    29    27    12   ar
    30    24    28    1
    31    28    29    1
    32    29    30    1
    33    30    23    1
    34     8    31    2
    35    31     5    1
    36     1    32    1
    37     1    33    1
    38     1    34    1
    39     3    35    1
    40     3    36    1
    41     4    37    1
    42     4    38    1
    43     9    39    1
    44     9    40    1
    45    11    41    1
    46    11    42    1
    47    11    43    1
    48    16    44    1
    49    17    45    1
    50    19    46    1
    51    19    47    1
    52    19    48    1
    53    20    49    1
    54    21    50    1
    55    28    51    1
    56    28    52    1
    57    29    53    1
    58    29    54    1
    59    30    55    1
    60    30    56    1
