@<TRIPOS>MOLECULE
*****
 56 60 0 0 0
SMALL
USER_CHARGES

@<TRIPOS>ATOM
      1 C1          6.0678    6.0839    5.4282 C.3     1  LIG1        0.0000
      2 O2          5.7028    5.6914    4.1132 O.3     1  LIG1        0.0000
      3 C3          4.6926    4.6945    4.0675 C.3     1  LIG1        0.0000
      4 C4          4.3829    4.3532    2.6190 C.3     1  LIG1        0.0000
      5 C5          3.3021    3.2865    2.5700 C.2     1  LIG1        0.0000
      6 N6          2.7170    2.7356    3.6033 N.2     1  LIG1        0.0000
      7 O7          1.8687    1.8926    3.1889 O.2     1  LIG1        0.0000
      8 C8          1.8781    1.8781    1.8781 C.2     1  LIG1        0.0000
      9 C9          1.0000    1.0000    1.0000 C.3     1  LIG1        0.0000
     10 N10        -0.2538    1.7059    0.6992 N.pl3   1  LIG1        0.0000
     11 C11        -1.4752    1.3882    1.4530 C.3     1  LIG1        0.0000
     12 C12        -0.2847    2.6815   -0.3059 C.ar    1  LIG1        0.0000
     13 N13        -1.3879    3.3677   -0.6468 N.ar    1  LIG1        0.0000
     14 C14        -1.3951    4.2955   -1.6227 C.ar    1  LIG1        0.0000
     15 C15        -2.6498    4.9698   -1.8926 C.ar    1  LIG1        0.0000
     16 C16        -3.4690    5.3406   -0.8314 C.ar    1  LIG1        0.0000
     17 C17        -4.6720    5.9871   -1.0954 C.ar    1  LIG1        0.0000
     18 C18        -5.0439    6.2548   -2.4085 C.ar    1  LIG1        0.0000
     19 C19        -6.3598    6.9610   -2.6879 C.3     1  LIG1        0.0000
     20 C20        -4.2178    5.8813   -3.4641 C.ar    1  LIG1        0.0000
     21 C21        -3.0134    5.2345   -3.2093 C.ar    1  LIG1        0.0000
     22 C22        -0.2517    4.6155   -2.3635 C.ar    1  LIG1        0.0000
     23 C23         0.0942    5.5202   -3.4274 C.2     1  LIG1        0.0000
     24 C24         1.3887    5.4159   -3.7956 C.2     1  LIG1        0.0000
     25 S25         2.1818    4.2527   -2.8417 S.3     1  LIG1        0.0000
     26 C26         0.8098    3.8523   -1.9254 C.ar    1  LIG1        0.0000
     27 N27         0.8530    2.9328   -0.9615 N.ar    1  LIG1        0.0000
     28 C28         1.7945    6.3000   -4.9467 C.3     1  LIG1        0.0000
     29 C29         0.7580    7.3930   -4.8196 C.3     1  LIG1        0.0000
     30 C30        -0.4361    6.5787   -4.3743 C.3     1  LIG1        0.0000
     31 N31         2.7678    2.7379    1.4477 N.2     1  LIG1        0.0000
     32 H           6.7798    6.7846    5.3815 H       1  LIG1        0.0000
     33 H           5.2672    6.4532    5.9001 H       1  LIG1        0.0000
     34 H           6.4134    5.2904    5.9291 H       1  LIG1        0.0000
     35 H           3.8657    5.0372    4.5133 H       1  LIG1        0.0000
     36 H           5.0119    3.8744    4.5423 H       1  LIG1        0.0000
     37 H           4.0637    5.1733    2.1442 H       1  LIG1        0.0000
     38 H           5.2099    4.0105    2.1732 H       1  LIG1        0.0000
     39 H           1.4802    0.7954    0.1471 H       1  LIG1        0.0000
     40 H           0.7954    0.1471    1.4802 H       1  LIG1        0.0000
     41 H          -1.2759    0.6758    2.1257 H       1  LIG1        0.0000
     42 H          -1.7999    2.2090    1.9229 H       1  LIG1        0.0000
     43 H          -2.1808    1.0638    0.8230 H       1  LIG1        0.0000
     44 H          -3.1963    5.1447    0.1105 H       1  LIG1        0.0000
     45 H          -5.2694    6.2595   -0.3411 H       1  LIG1        0.0000
     46 H          -6.4738    7.0752   -3.6748 H       1  LIG1        0.0000
     47 H          -7.1149    6.4143   -2.3262 H       1  LIG1        0.0000
     48 H          -6.3567    7.8584   -2.2466 H       1  LIG1        0.0000
     49 H          -4.4902    6.0780   -4.4060 H       1  LIG1        0.0000
     50 H          -2.4157    4.9628   -3.9635 H       1  LIG1        0.0000
     51 H           1.7248    5.8231   -5.8229 H       1  LIG1        0.0000
     52 H           2.7227    6.6542   -4.8328 H       1  LIG1        0.0000
     53 H           0.5907    7.8482   -5.6941 H       1  LIG1        0.0000
     54 H           1.0189    8.0730   -4.1344 H       1  LIG1        0.0000
     55 H          -1.0970    7.1633   -3.9039 H       1  LIG1        0.0000
     56 H          -0.8743    6.1481   -5.1633 H       1  LIG1        0.0000
@<TRIPOS>BOND
     1     1     2    1
     2     2     3    1
     3     3     4    1
     4     4     5    1
     5     5     6    2
     6     6     7    1
     7     7     8    1
     8     8     9    1
     9     9    10    1
    10    10    11    1
    11    10    12    1
    12    12    13   ar
    13    13    14   ar
    14    14    15    1
    15    15    16   ar
    16    16    17   ar
    17    17    18   ar
    18    18    19    1
    19    18    20   ar
    20    20    21   ar
    21    21    15   ar
    22    14    22   ar
    23    22    23    1
    24    23    24    2
    25    24    25    1
    26    25    26    1
    27    26    22   ar
    28    26    27   ar
    29    27    12   ar
    30    24    28    1
    31    28    29    1
    32    29    30    1
    33    30    23    1
    34     8    31    2
    35    31     5    1
    36     1    32    1
    37     1    33    1
    38     1    34    1
    39     3    35    1
    40     3    36    1
    41     4    37    1
    42     4    38    1
    43     9    39    1
    44     9    40    1
    45    11    41    1
    46    11    42    1
    47    11    43    1
    48    16    44    1
    49    17    45    1
    50    19    46    1
    51    19    47    1
    52    19    48    1
    53    20    49    1
    54    21    50    1
    55    28    51    1
    56    28    52    1
    57    29    53    1
    58    29    54    1
    59    30    55    1
    60    30    56    1
