@<TRIPOS>MOLECULE
*****
 56 60 0 0 0
SMALL
USER_CHARGES

@<TRIPOS>ATOM
      1 C1          6.2611    6.1386   -0.0287 C.3     1  LIG1        0.0000
      2 O2          5.8043    5.7201    1.2490 O.3     1  LIG1        0.0000
      3 C3          4.7941    4.7232    1.2033 C.3     1  LIG1        0.0000
      4 C4          4.3829    4.3532    2.6190 C.3     1  LIG1        0.0000
      5 C5          3.3021    3.2865    2.5700 C.2     1  LIG1        0.0000
      6 N6          2.7170    2.7356    3.6033 N.2     1  LIG1        0.0000
      7 O7          1.8687    1.8926    3.1889 O.2     1  LIG1        0.0000
      8 C8          1.8781    1.8781    1.8781 C.2     1  LIG1        0.0000
      9 C9          1.0000    1.0000    1.0000 C.3     1  LIG1        0.0000
     10 N10        -0.2538    1.7059    0.6992 N.pl3   1  LIG1        0.0000
     11 C11        -1.4752    1.3882    1.4530 C.3     1  LIG1        0.0000
     12 C12        -0.2847    2.6815   -0.3059 C.ar    1  LIG1        0.0000
     13 N13         0.7854    3.0353   -1.0363 N.ar    1  LIG1        0.0000
     14 C14         0.7333    3.9824   -1.9920 C.ar    1  LIG1        0.0000
     15 C15         1.9575    4.2703   -2.7133 C.ar    1  LIG1        0.0000
     16 C16         3.1647    4.3089   -2.0235 C.ar    1  LIG1        0.0000
     17 C17         4.3366    4.5859   -2.7198 C.ar    1  LIG1        0.0000
     18 C18         4.2922    4.8212   -4.0897 C.ar    1  LIG1        0.0000
     19 C19         5.5770    5.1233   -4.8424 C.3     1  LIG1        0.0000
     20 C20         3.0803    4.7796   -4.7722 C.ar    1  LIG1        0.0000
     21 C21         1.9039    4.5035   -4.0839 C.ar    1  LIG1        0.0000
     22 C22        -0.4423    4.6777   -2.2972 C.ar    1  LIG1        0.0000
     23 C23        -0.8493    5.7027   -3.2213 C.2     1  LIG1        0.0000
     24 C24        -2.1510    6.0339   -3.0869 C.2     1  LIG1        0.0000
     25 S25        -2.8775    5.0917   -1.8717 S.3     1  LIG1        0.0000
     26 C26        -1.4654    4.2306   -1.4883 C.ar    1  LIG1        0.0000
     27 N27        -1.4498    3.2940   -0.5401 N.ar    1  LIG1        0.0000
     28 C28        -2.6200    7.1447   -3.9910 C.3     1  LIG1        0.0000
     29 C29        -1.6141    7.0166   -5.1120 C.3     1  LIG1        0.0000
     30 C30        -0.3820    6.6330   -4.3232 C.3     1  LIG1        0.0000
     31 N31         2.7678    2.7379    1.4477 N.2     1  LIG1        0.0000
     32 H           6.9675    6.8377    0.0824 H       1  LIG1        0.0000
     33 H           6.6419    5.3550   -0.5196 H       1  LIG1        0.0000
     34 H           5.4957    6.5178   -0.5486 H       1  LIG1        0.0000
     35 H           5.1468    3.9125    0.7359 H       1  LIG1        0.0000
     36 H           4.0006    5.0753    0.7070 H       1  LIG1        0.0000
     37 H           5.1765    4.0011    3.1153 H       1  LIG1        0.0000
     38 H           4.0303    5.1639    3.0864 H       1  LIG1        0.0000
     39 H           1.4802    0.7954    0.1471 H       1  LIG1        0.0000
     40 H           0.7954    0.1471    1.4802 H       1  LIG1        0.0000
     41 H          -1.2759    0.6758    2.1257 H       1  LIG1        0.0000
     42 H          -1.7999    2.2090    1.9229 H       1  LIG1        0.0000
     43 H          -2.1808    1.0638    0.8230 H       1  LIG1        0.0000
     44 H           3.1899    4.1396   -1.0382 H       1  LIG1        0.0000
     45 H           5.2109    4.6158   -2.2353 H       1  LIG1        0.0000
     46 H           5.3704    5.2665   -5.8103 H       1  LIG1        0.0000
     47 H           5.9978    5.9486   -4.4658 H       1  LIG1        0.0000
     48 H           6.2083    4.3537   -4.7466 H       1  LIG1        0.0000
     49 H           3.0553    4.9481   -5.7576 H       1  LIG1        0.0000
     50 H           1.0297    4.4729   -4.5685 H       1  LIG1        0.0000
     51 H          -2.5635    8.0367   -3.5424 H       1  LIG1        0.0000
     52 H          -3.5545    6.9917   -4.3121 H       1  LIG1        0.0000
     53 H          -1.4885    7.8817   -5.5977 H       1  LIG1        0.0000
     54 H          -1.8740    6.3035   -5.7631 H       1  LIG1        0.0000
     55 H           0.2752    6.1656   -4.9145 H       1  LIG1        0.0000
     56 H           0.0440    7.4478   -3.9300 H       1  LIG1        0.0000
@<TRIPOS>BOND
     1     1     2    1
     2     2     3    1
     3     3     4    1
     4     4     5    1
     5     5     6    2
     6     6     7    1
     7     7     8    1
     8     8     9    1
     9     9    10    1
    10    10    11    1
    11    10    12    1
    12    12    13   ar
    13    13    14   ar
    14    14    15    1
    15    15    16   ar
    16    16    17   ar
    17    17    18   ar
    18    18    19    1
    19    18    20   ar
    20    20    21   ar
    21    21    15   ar
    22    14    22   ar
    23    22    23    1
    24    23    24    2
    25    24    25    1
    26    25    26    1
    27    26    22   ar
    28    26    27   ar
    29    27    12   ar
    30    24    28    1
    31    28    29    1
    32    29    30    1
    33    30    23    1
    34     8    31    2
    35    31     5    1
    36     1    32    1
    37     1    33    1
    38     1    34    1
    39     3    35    1
    40     3    36    1
    41     4    37    1
    42     4    38    1
    43     9    39    1
    44     9    40    1
    45    11    41    1
    46    11    42    1
    47    11    43    1
    48    16    44    1
    49    17    45    1
    50    19    46    1
    51    19    47    1
    52    19    48    1
    53    20    49    1
    54    21    50    1
    55    28    51    1
    56    28    52    1
    57    29    53    1
    58    29    54    1
    59    30    55    1
    60    30    56    1
