@<TRIPOS>MOLECULE
*****
 56 60 0 0 0
SMALL
USER_CHARGES

@<TRIPOS>ATOM
      1 C1          6.0678    6.0839    5.4282 C.3     1  LIG1        0.0000
      2 O2          5.7028    5.6914    4.1132 O.3     1  LIG1        0.0000
      3 C3          4.6926    4.6945    4.0675 C.3     1  LIG1        0.0000
      4 C4          4.3829    4.3532    2.6190 C.3     1  LIG1        0.0000
      5 C5          3.3021    3.2865    2.5700 C.2     1  LIG1        0.0000
      6 N6          2.7170    2.7356    3.6033 N.2     1  LIG1        0.0000
      7 O7          1.8687    1.8926    3.1889 O.2     1  LIG1        0.0000
      8 C8          1.8781    1.8781    1.8781 C.2     1  LIG1        0.0000
      9 C9          1.0000    1.0000    1.0000 C.3     1  LIG1        0.0000
     10 N10        -0.2538    1.7059    0.6992 N.pl3   1  LIG1        0.0000
     11 C11        -0.4851    3.0546    1.2363 C.3     1  LIG1        0.0000
     12 C12        -1.2285    1.0933   -0.0994 C.ar    1  LIG1        0.0000
     13 N13        -1.0944   -0.1318   -0.6333 N.ar    1  LIG1        0.0000
     14 C14        -2.0420   -0.6969   -1.4051 C.ar    1  LIG1        0.0000
     15 C15        -1.7786   -2.0269   -1.9185 C.ar    1  LIG1        0.0000
     16 C16        -0.5006   -2.3469   -2.3650 C.ar    1  LIG1        0.0000
     17 C17        -0.2528   -3.6241   -2.8570 C.ar    1  LIG1        0.0000
     18 C18        -1.2771   -4.5637   -2.8994 C.ar    1  LIG1        0.0000
     19 C19        -0.9978   -5.9564   -3.4387 C.3     1  LIG1        0.0000
     20 C20        -2.5524   -4.2355   -2.4497 C.ar    1  LIG1        0.0000
     21 C21        -2.8091   -2.9610   -1.9563 C.ar    1  LIG1        0.0000
     22 C22        -3.2426   -0.0486   -1.7162 C.ar    1  LIG1        0.0000
     23 C23        -4.4320   -0.3411   -2.4712 C.2     1  LIG1        0.0000
     24 C24        -5.3188    0.6764   -2.4554 C.2     1  LIG1        0.0000
     25 S25        -4.7263    1.9613   -1.5118 S.3     1  LIG1        0.0000
     26 C26        -3.2655    1.1923   -1.1155 C.ar    1  LIG1        0.0000
     27 N27        -2.3507    1.7778   -0.3430 N.ar    1  LIG1        0.0000
     28 C28        -6.5607    0.4490   -3.2783 C.3     1  LIG1        0.0000
     29 C29        -6.6005   -1.0620   -3.2859 C.3     1  LIG1        0.0000
     30 C30        -5.1208   -1.3682   -3.3480 C.3     1  LIG1        0.0000
     31 N31         2.7678    2.7379    1.4477 N.2     1  LIG1        0.0000
     32 H           6.7798    6.7846    5.3815 H       1  LIG1        0.0000
     33 H           5.2672    6.4532    5.9001 H       1  LIG1        0.0000
     34 H           6.4134    5.2904    5.9291 H       1  LIG1        0.0000
     35 H           3.8657    5.0372    4.5133 H       1  LIG1        0.0000
     36 H           5.0119    3.8744    4.5423 H       1  LIG1        0.0000
     37 H           4.0637    5.1733    2.1442 H       1  LIG1        0.0000
     38 H           5.2099    4.0105    2.1732 H       1  LIG1        0.0000
     39 H           1.4802    0.7954    0.1471 H       1  LIG1        0.0000
     40 H           0.7954    0.1471    1.4802 H       1  LIG1        0.0000
     41 H           0.3054    3.3371    1.7797 H       1  LIG1        0.0000
     42 H          -0.6166    3.6963    0.4807 H       1  LIG1        0.0000
     43 H          -1.3014    3.0480    1.8138 H       1  LIG1        0.0000
     44 H           0.2315   -1.6665   -2.3326 H       1  LIG1        0.0000
     45 H           0.6619   -3.8667   -3.1803 H       1  LIG1        0.0000
     46 H          -1.8343   -6.5030   -3.3995 H       1  LIG1        0.0000
     47 H          -0.6867   -5.8905   -4.3868 H       1  LIG1        0.0000
     48 H          -0.2885   -6.3923   -2.8846 H       1  LIG1        0.0000
     49 H          -3.2843   -4.9162   -2.4814 H       1  LIG1        0.0000
     50 H          -3.7236   -2.7186   -1.6323 H       1  LIG1        0.0000
     51 H          -6.4673    0.8221   -4.2014 H       1  LIG1        0.0000
     52 H          -7.3714    0.8390   -2.8416 H       1  LIG1        0.0000
     53 H          -7.0858   -1.4157   -4.0856 H       1  LIG1        0.0000
     54 H          -7.0194   -1.4257   -2.4540 H       1  LIG1        0.0000
     55 H          -4.9440   -2.2904   -3.0041 H       1  LIG1        0.0000
     56 H          -4.7919   -1.2949   -4.2896 H       1  LIG1        0.0000
@<TRIPOS>BOND
     1     1     2    1
     2     2     3    1
     3     3     4    1
     4     4     5    1
     5     5     6    2
     6     6     7    1
     7     7     8    1
     8     8     9    1
     9     9    10    1
    10    10    11    1
    11    10    12    1
    12    12    13   ar
    13    13    14   ar
    14    14    15    1
    15    15    16   ar
    16    16    17   ar
    17    17    18   ar
    18    18    19    1
    19    18    20   ar
    20    20    21   ar
    21    21    15   ar
    22    14    22   ar
    23    22    23    1
    24    23    24    2
    25    24    25    1
    26    25    26    1
    27    26    22   ar
    28    26    27   ar
    29    27    12   ar
    30    24    28    1
    31    28    29    1
    32    29    30    1
    33    30    23    1
    34     8    31    2
    35    31     5    1
    36     1    32    1
    37     1    33    1
    38     1    34    1
    39     3    35    1
    40     3    36    1
    41     4    37    1
    42     4    38    1
    43     9    39    1
    44     9    40    1
    45    11    41    1
    46    11    42    1
    47    11    43    1
    48    16    44    1
    49    17    45    1
    50    19    46    1
    51    19    47    1
    52    19    48    1
    53    20    49    1
    54    21    50    1
    55    28    51    1
    56    28    52    1
    57    29    53    1
    58    29    54    1
    59    30    55    1
    60    30    56    1
