@<TRIPOS>MOLECULE

  54   56
SMALL
USER_CHARGES
@<TRIPOS>ATOM
   1 C1           3.0291    -1.9952     7.4351 C.3          1    LIG   0.0000
   2 C2           3.7173    -2.5175     6.1845 C.3          1    LIG   0.0000
   3 C3           2.9861    -2.0079     4.9536 C.3          1    LIG   0.0000
   4 C4           3.6653    -2.5238     3.6954 C.3          1    LIG   0.0000
   5 C5           2.9322    -2.0049     2.4688 C.3          1    LIG   0.0000
   6 C6           2.9126    -0.4848     2.4622 C.3          1    LIG   0.0000
   7 C7           2.1732     0.0184     1.2333 C.3          1    LIG   0.0000
   8 C8           2.1537     1.5386     1.2266 C.3          1    LIG   0.0000
   9 C9           1.4132     2.0574     0.0045 C.3          1    LIG   0.0000
  10 C10         -0.0087     1.5199     0.0015 C.3          1    LIG   0.0000
  11 N11         -0.7294     2.0126    -1.1802 N.pl3        1    LIG   0.0000
  12 N12         -0.9464     3.2729    -1.4670 N.2          1    LIG   0.0000
  13 N13         -1.5894     3.3627    -2.5481 N.2          1    LIG   0.0000
  14 C14         -1.8008     2.0894    -2.9827 C.2          1    LIG   0.0000
  15 C15         -2.5389     1.6906    -4.2508 C.3          1    LIG   0.0000
  16 C16         -2.5556     0.1755    -4.3720 C.3          1    LIG   0.0000
  17 N17         -3.2692    -0.2101    -5.5980 N.4          1    LIG   1.0000
  18 N18         -1.2597     1.2668    -2.1170 N.2          1    LIG   0.0000
  19 C19          0.0010    -0.0001     0.0092 C.3          1    LIG   0.0000
  20 C20          0.7473    -0.5086     1.2320 C.3          1    LIG   0.0000
  21 C21          2.2301     0.0206     3.7231 C.3          1    LIG   0.0000
  22 C22          2.9609    -0.4880     4.9552 C.3          1    LIG   0.0000
  23 H            2.0453    -2.3461     4.9742 H            1    LIG   0.0000
  24 H            3.8530    -0.1453     2.4403 H            1    LIG   0.0000
  25 H            2.6431    -0.3065     0.4125 H            1    LIG   0.0000
  26 H           -0.4776     1.8435     0.8233 H            1    LIG   0.0000
  27 H           -3.2802    -1.2069    -5.6778 H            1    LIG   0.0000
  28 H           -4.2082     0.1315    -5.5586 H            1    LIG   0.0000
  29 H           -2.8046     0.1827    -6.3917 H            1    LIG   0.0000
  30 H            3.5102    -2.3305     8.2450 H            1    LIG   0.0000
  31 H            3.0421    -0.9953     7.4298 H            1    LIG   0.0000
  32 H            2.0821    -2.3161     7.4531 H            1    LIG   0.0000
  33 H            4.6642    -2.1966     6.1664 H            1    LIG   0.0000
  34 H            3.7042    -3.5174     6.1898 H            1    LIG   0.0000
  35 H            3.6486    -3.5236     3.6946 H            1    LIG   0.0000
  36 H            4.6134    -2.2062     3.6752 H            1    LIG   0.0000
  37 H            3.3965    -2.3315     1.6455 H            1    LIG   0.0000
  38 H            1.9922    -2.3459     2.4788 H            1    LIG   0.0000
  39 H            3.0936     1.8795     1.2110 H            1    LIG   0.0000
  40 H            1.6943     1.8652     2.0527 H            1    LIG   0.0000
  41 H            1.3908     3.0568     0.0286 H            1    LIG   0.0000
  42 H            1.8849     1.7544    -0.8236 H            1    LIG   0.0000
  43 H           -2.0744     2.0834    -5.0444 H            1    LIG   0.0000
  44 H           -3.4779     2.0322    -4.2113 H            1    LIG   0.0000
  45 H           -1.6166    -0.1661    -4.4115 H            1    LIG   0.0000
  46 H           -3.0202    -0.2173    -3.5784 H            1    LIG   0.0000
  47 H            0.4545    -0.3327    -0.8177 H            1    LIG   0.0000
  48 H           -0.9402    -0.3373     0.0316 H            1    LIG   0.0000
  49 H            0.2789    -0.1962     2.0584 H            1    LIG   0.0000
  50 H            0.7646    -1.5083     1.2164 H            1    LIG   0.0000
  51 H            1.2853    -0.3064     3.7410 H            1    LIG   0.0000
  52 H            2.2369     1.0206     3.7243 H            1    LIG   0.0000
  53 H            3.8988    -0.1412     4.9507 H            1    LIG   0.0000
  54 H            2.4901    -0.1654     5.7763 H            1    LIG   0.0000
@<TRIPOS>BOND
   1        1        2 1
   2        2        3 1
   3        3        4 1
   4        4        5 1
   5        5        6 1
   6        6        7 1
   7        7        8 1
   8        8        9 1
   9        9       10 1
  10       10       11 1
  11       11       12 1
  12       12       13 2
  13       13       14 1
  14       14       15 1
  15       15       16 1
  16       16       17 1
  17       14       18 2
  18       18       11 1
  19       10       19 1
  20       19       20 1
  21       20        7 1
  22        6       21 1
  23       21       22 1
  24       22        3 1
  25        3       23 1
  26        6       24 1
  27        7       25 1
  28       10       26 1
  29       17       27 1
  30       17       28 1
  31       17       29 1
  32        1       30 1
  33        1       31 1
  34        1       32 1
  35        2       33 1
  36        2       34 1
  37        4       35 1
  38        4       36 1
  39        5       37 1
  40        5       38 1
  41        8       39 1
  42        8       40 1
  43        9       41 1
  44        9       42 1
  45       15       43 1
  46       15       44 1
  47       16       45 1
  48       16       46 1
  49       19       47 1
  50       19       48 1
  51       20       49 1
  52       20       50 1
  53       21       51 1
  54       21       52 1
  55       22       53 1
  56       22       54 1

@<TRIPOS>MOLECULE

  54   56
SMALL
USER_CHARGES
@<TRIPOS>ATOM
   1 C1           5.8261    -4.0165     4.9245 C.3          1    LIG   0.0000
   2 C2           5.8390    -2.4966     4.9165 C.3          1    LIG   0.0000
   3 C3           5.0919    -1.9901     3.6940 C.3          1    LIG   0.0000
   4 C4           5.0977    -0.4701     3.6746 C.3          1    LIG   0.0000
   5 C5           4.3435     0.0288     2.4525 C.3          1    LIG   0.0000
   6 C6           2.9126    -0.4848     2.4622 C.3          1    LIG   0.0000
   7 C7           2.1732     0.0184     1.2333 C.3          1    LIG   0.0000
   8 C8           2.1537     1.5386     1.2266 C.3          1    LIG   0.0000
   9 C9           1.4132     2.0574     0.0045 C.3          1    LIG   0.0000
  10 C10         -0.0087     1.5199     0.0015 C.3          1    LIG   0.0000
  11 N11         -0.7294     2.0126    -1.1802 N.pl3        1    LIG   0.0000
  12 N12         -0.9464     3.2729    -1.4670 N.2          1    LIG   0.0000
  13 N13         -1.5894     3.3627    -2.5481 N.2          1    LIG   0.0000
  14 C14         -1.8008     2.0894    -2.9827 C.2          1    LIG   0.0000
  15 C15         -2.5389     1.6906    -4.2508 C.3          1    LIG   0.0000
  16 C16         -2.5556     0.1755    -4.3720 C.3          1    LIG   0.0000
  17 N17         -3.2692    -0.2101    -5.5980 N.4          1    LIG   1.0000
  18 N18         -1.2597     1.2668    -2.1170 N.2          1    LIG   0.0000
  19 C19          0.0010    -0.0001     0.0092 C.3          1    LIG   0.0000
  20 C20          0.7473    -0.5086     1.2320 C.3          1    LIG   0.0000
  21 C21          2.9180    -2.0049     2.4798 C.3          1    LIG   0.0000
  22 C22          3.6646    -2.5129     3.7026 C.3          1    LIG   0.0000
  23 H            5.5532    -2.3250     2.8724 H            1    LIG   0.0000
  24 H            2.4499    -0.1495     3.2828 H            1    LIG   0.0000
  25 H            2.6431    -0.3065     0.4125 H            1    LIG   0.0000
  26 H           -0.4776     1.8435     0.8233 H            1    LIG   0.0000
  27 H           -3.2802    -1.2069    -5.6778 H            1    LIG   0.0000
  28 H           -4.2082     0.1315    -5.5586 H            1    LIG   0.0000
  29 H           -2.8046     0.1827    -6.3917 H            1    LIG   0.0000
  30 H            6.3178    -4.3498     5.7289 H            1    LIG   0.0000
  31 H            4.8809    -4.3417     4.9531 H            1    LIG   0.0000
  32 H            6.2712    -4.3579     4.0966 H            1    LIG   0.0000
  33 H            5.3940    -2.1551     5.7443 H            1    LIG   0.0000
  34 H            6.7843    -2.1714     4.8879 H            1    LIG   0.0000
  35 H            6.0416    -0.1416     3.6398 H            1    LIG   0.0000
  36 H            4.6550    -0.1253     4.5023 H            1    LIG   0.0000
  37 H            4.3340     1.0288     2.4575 H            1    LIG   0.0000
  38 H            4.8040    -0.2961     1.6265 H            1    LIG   0.0000
  39 H            3.0936     1.8795     1.2110 H            1    LIG   0.0000
  40 H            1.6943     1.8652     2.0527 H            1    LIG   0.0000
  41 H            1.3908     3.0568     0.0286 H            1    LIG   0.0000
  42 H            1.8849     1.7544    -0.8236 H            1    LIG   0.0000
  43 H           -2.0744     2.0834    -5.0444 H            1    LIG   0.0000
  44 H           -3.4779     2.0322    -4.2113 H            1    LIG   0.0000
  45 H           -1.6166    -0.1661    -4.4115 H            1    LIG   0.0000
  46 H           -3.0202    -0.2173    -3.5784 H            1    LIG   0.0000
  47 H            0.4545    -0.3327    -0.8177 H            1    LIG   0.0000
  48 H           -0.9402    -0.3373     0.0316 H            1    LIG   0.0000
  49 H            0.2789    -0.1962     2.0584 H            1    LIG   0.0000
  50 H            0.7646    -1.5083     1.2164 H            1    LIG   0.0000
  51 H            3.3684    -2.3433     1.6536 H            1    LIG   0.0000
  52 H            1.9756    -2.3384     2.5061 H            1    LIG   0.0000
  53 H            3.2006    -2.1955     4.5296 H            1    LIG   0.0000
  54 H            3.6780    -3.5128     3.6909 H            1    LIG   0.0000
@<TRIPOS>BOND
   1        1        2 1
   2        2        3 1
   3        3        4 1
   4        4        5 1
   5        5        6 1
   6        6        7 1
   7        7        8 1
   8        8        9 1
   9        9       10 1
  10       10       11 1
  11       11       12 1
  12       12       13 2
  13       13       14 1
  14       14       15 1
  15       15       16 1
  16       16       17 1
  17       14       18 2
  18       18       11 1
  19       10       19 1
  20       19       20 1
  21       20        7 1
  22        6       21 1
  23       21       22 1
  24       22        3 1
  25        3       23 1
  26        6       24 1
  27        7       25 1
  28       10       26 1
  29       17       27 1
  30       17       28 1
  31       17       29 1
  32        1       30 1
  33        1       31 1
  34        1       32 1
  35        2       33 1
  36        2       34 1
  37        4       35 1
  38        4       36 1
  39        5       37 1
  40        5       38 1
  41        8       39 1
  42        8       40 1
  43        9       41 1
  44        9       42 1
  45       15       43 1
  46       15       44 1
  47       16       45 1
  48       16       46 1
  49       19       47 1
  50       19       48 1
  51       20       49 1
  52       20       50 1
  53       21       51 1
  54       21       52 1
  55       22       53 1
  56       22       54 1

@<TRIPOS>MOLECULE

  54   56
SMALL
USER_CHARGES
@<TRIPOS>ATOM
   1 C1           6.5629     0.0104     6.1303 C.3          1    LIG   0.0000
   2 C2           5.1271    -0.4872     6.1677 C.3          1    LIG   0.0000
   3 C3           4.3877     0.0062     4.9351 C.3          1    LIG   0.0000
   4 C4           2.9495    -0.4852     4.9609 C.3          1    LIG   0.0000
   5 C5           2.2184     0.0070     3.7221 C.3          1    LIG   0.0000
   6 C6           2.9126    -0.4848     2.4622 C.3          1    LIG   0.0000
   7 C7           2.1732     0.0184     1.2333 C.3          1    LIG   0.0000
   8 C8           2.1537     1.5386     1.2266 C.3          1    LIG   0.0000
   9 C9           1.4132     2.0574     0.0045 C.3          1    LIG   0.0000
  10 C10         -0.0087     1.5199     0.0015 C.3          1    LIG   0.0000
  11 N11         -0.7294     2.0126    -1.1802 N.pl3        1    LIG   0.0000
  12 N12         -0.9464     3.2729    -1.4670 N.2          1    LIG   0.0000
  13 N13         -1.5894     3.3627    -2.5481 N.2          1    LIG   0.0000
  14 C14         -1.8008     2.0894    -2.9827 C.2          1    LIG   0.0000
  15 C15         -2.5389     1.6906    -4.2508 C.3          1    LIG   0.0000
  16 C16         -2.5556     0.1755    -4.3720 C.3          1    LIG   0.0000
  17 N17         -3.2692    -0.2101    -5.5980 N.4          1    LIG   1.0000
  18 N18         -1.2597     1.2668    -2.1170 N.2          1    LIG   0.0000
  19 C19          0.0010    -0.0001     0.0092 C.3          1    LIG   0.0000
  20 C20          0.7473    -0.5086     1.2320 C.3          1    LIG   0.0000
  21 C21          4.3489     0.0133     2.4454 C.3          1    LIG   0.0000
  22 C22          5.0898    -0.4801     3.6776 C.3          1    LIG   0.0000
  23 H            4.3871     1.0062     4.9380 H            1    LIG   0.0000
  24 H            2.9128    -1.4848     2.4575 H            1    LIG   0.0000
  25 H            2.6431    -0.3065     0.4125 H            1    LIG   0.0000
  26 H           -0.4776     1.8435     0.8233 H            1    LIG   0.0000
  27 H           -3.2802    -1.2069    -5.6778 H            1    LIG   0.0000
  28 H           -4.2082     0.1315    -5.5586 H            1    LIG   0.0000
  29 H           -2.8046     0.1827    -6.3917 H            1    LIG   0.0000
  30 H            7.0494    -0.3142     6.9414 H            1    LIG   0.0000
  31 H            7.0149    -0.3375     5.3089 H            1    LIG   0.0000
  32 H            6.5689     1.0103     6.1159 H            1    LIG   0.0000
  33 H            5.1211    -1.4870     6.1821 H            1    LIG   0.0000
  34 H            4.6750    -0.1392     6.9890 H            1    LIG   0.0000
  35 H            2.4927    -0.1340     5.7781 H            1    LIG   0.0000
  36 H            2.9399    -1.4850     4.9773 H            1    LIG   0.0000
  37 H            1.2795    -0.3370     3.7359 H            1    LIG   0.0000
  38 H            2.2071     1.0069     3.7224 H            1    LIG   0.0000
  39 H            3.0936     1.8795     1.2110 H            1    LIG   0.0000
  40 H            1.6943     1.8652     2.0527 H            1    LIG   0.0000
  41 H            1.3908     3.0568     0.0286 H            1    LIG   0.0000
  42 H            1.8849     1.7544    -0.8236 H            1    LIG   0.0000
  43 H           -2.0744     2.0834    -5.0444 H            1    LIG   0.0000
  44 H           -3.4779     2.0322    -4.2113 H            1    LIG   0.0000
  45 H           -1.6166    -0.1661    -4.4115 H            1    LIG   0.0000
  46 H           -3.0202    -0.2173    -3.5784 H            1    LIG   0.0000
  47 H            0.4545    -0.3327    -0.8177 H            1    LIG   0.0000
  48 H           -0.9402    -0.3373     0.0316 H            1    LIG   0.0000
  49 H            0.2789    -0.1962     2.0584 H            1    LIG   0.0000
  50 H            0.7646    -1.5083     1.2164 H            1    LIG   0.0000
  51 H            4.3517     1.0132     2.4365 H            1    LIG   0.0000
  52 H            4.8075    -0.3287     1.6252 H            1    LIG   0.0000
  53 H            5.1089    -1.4799     3.6745 H            1    LIG   0.0000
  54 H            6.0259    -0.1287     3.6640 H            1    LIG   0.0000
@<TRIPOS>BOND
   1        1        2 1
   2        2        3 1
   3        3        4 1
   4        4        5 1
   5        5        6 1
   6        6        7 1
   7        7        8 1
   8        8        9 1
   9        9       10 1
  10       10       11 1
  11       11       12 1
  12       12       13 2
  13       13       14 1
  14       14       15 1
  15       15       16 1
  16       16       17 1
  17       14       18 2
  18       18       11 1
  19       10       19 1
  20       19       20 1
  21       20        7 1
  22        6       21 1
  23       21       22 1
  24       22        3 1
  25        3       23 1
  26        6       24 1
  27        7       25 1
  28       10       26 1
  29       17       27 1
  30       17       28 1
  31       17       29 1
  32        1       30 1
  33        1       31 1
  34        1       32 1
  35        2       33 1
  36        2       34 1
  37        4       35 1
  38        4       36 1
  39        5       37 1
  40        5       38 1
  41        8       39 1
  42        8       40 1
  43        9       41 1
  44        9       42 1
  45       15       43 1
  46       15       44 1
  47       16       45 1
  48       16       46 1
  49       19       47 1
  50       19       48 1
  51       20       49 1
  52       20       50 1
  53       21       51 1
  54       21       52 1
  55       22       53 1
  56       22       54 1

@<TRIPOS>MOLECULE

  54   56
SMALL
USER_CHARGES
@<TRIPOS>ATOM
   1 C1           4.4071    -0.0031     7.4256 C.3          1    LIG   0.0000
   2 C2           5.1181    -0.4883     6.1728 C.3          1    LIG   0.0000
   3 C3           4.3803     0.0157     4.9446 C.3          1    LIG   0.0000
   4 C4           5.0820    -0.4632     3.6841 C.3          1    LIG   0.0000
   5 C5           4.3431     0.0301     2.4503 C.3          1    LIG   0.0000
   6 C6           2.9126    -0.4848     2.4622 C.3          1    LIG   0.0000
   7 C7           2.1732     0.0184     1.2333 C.3          1    LIG   0.0000
   8 C8           2.1537     1.5386     1.2266 C.3          1    LIG   0.0000
   9 C9           1.4132     2.0574     0.0045 C.3          1    LIG   0.0000
  10 C10         -0.0087     1.5199     0.0015 C.3          1    LIG   0.0000
  11 N11         -0.7294     2.0126    -1.1802 N.pl3        1    LIG   0.0000
  12 N12         -0.9464     3.2729    -1.4670 N.2          1    LIG   0.0000
  13 N13         -1.5894     3.3627    -2.5481 N.2          1    LIG   0.0000
  14 C14         -1.8008     2.0894    -2.9827 C.2          1    LIG   0.0000
  15 C15         -2.5389     1.6906    -4.2508 C.3          1    LIG   0.0000
  16 C16         -3.0141     2.9398    -4.9746 C.3          1    LIG   0.0000
  17 N17         -3.7277     2.5542    -6.2006 N.4          1    LIG   1.0000
  18 N18         -1.2597     1.2668    -2.1170 N.2          1    LIG   0.0000
  19 C19          0.0010    -0.0001     0.0092 C.3          1    LIG   0.0000
  20 C20          0.7473    -0.5086     1.2320 C.3          1    LIG   0.0000
  21 C21          2.2088    -0.0009     3.7201 C.3          1    LIG   0.0000
  22 C22          2.9482    -0.4947     4.9529 C.3          1    LIG   0.0000
  23 H            4.3717     1.0156     4.9549 H            1    LIG   0.0000
  24 H            2.9224    -1.4847     2.4542 H            1    LIG   0.0000
  25 H            2.6431    -0.3065     0.4125 H            1    LIG   0.0000
  26 H           -0.4776     1.8435     0.8233 H            1    LIG   0.0000
  27 H           -4.0404     3.3761    -6.6768 H            1    LIG   0.0000
  28 H           -3.1123     2.0377    -6.7960 H            1    LIG   0.0000
  29 H           -4.5159     1.9865    -5.9629 H            1    LIG   0.0000
  30 H            4.8928    -0.3349     8.2343 H            1    LIG   0.0000
  31 H            4.3907     0.9968     7.4335 H            1    LIG   0.0000
  32 H            3.4699    -0.3518     7.4332 H            1    LIG   0.0000
  33 H            6.0552    -0.1396     6.1652 H            1    LIG   0.0000
  34 H            5.1344    -1.4882     6.1649 H            1    LIG   0.0000
  35 H            5.1038    -1.4629     3.6781 H            1    LIG   0.0000
  36 H            6.0172    -0.1093     3.6723 H            1    LIG   0.0000
  37 H            4.3353     1.0301     2.4463 H            1    LIG   0.0000
  38 H            4.8083    -0.3029     1.6301 H            1    LIG   0.0000
  39 H            3.0936     1.8795     1.2110 H            1    LIG   0.0000
  40 H            1.6943     1.8652     2.0527 H            1    LIG   0.0000
  41 H            1.3908     3.0568     0.0286 H            1    LIG   0.0000
  42 H            1.8849     1.7544    -0.8236 H            1    LIG   0.0000
  43 H           -3.3271     1.1228    -4.0131 H            1    LIG   0.0000
  44 H           -1.9235     1.1741    -4.8462 H            1    LIG   0.0000
  45 H           -3.6295     3.4563    -4.3792 H            1    LIG   0.0000
  46 H           -2.2260     3.5075    -5.2122 H            1    LIG   0.0000
  47 H            0.4545    -0.3327    -0.8177 H            1    LIG   0.0000
  48 H           -0.9402    -0.3373     0.0316 H            1    LIG   0.0000
  49 H            0.2789    -0.1962     2.0584 H            1    LIG   0.0000
  50 H            0.7646    -1.5083     1.2164 H            1    LIG   0.0000
  51 H            1.2730    -0.3532     3.7321 H            1    LIG   0.0000
  52 H            2.1887     0.9989     3.7244 H            1    LIG   0.0000
  53 H            2.4831    -0.1610     5.7729 H            1    LIG   0.0000
  54 H            2.9537    -1.4947     4.9565 H            1    LIG   0.0000
@<TRIPOS>BOND
   1        1        2 1
   2        2        3 1
   3        3        4 1
   4        4        5 1
   5        5        6 1
   6        6        7 1
   7        7        8 1
   8        8        9 1
   9        9       10 1
  10       10       11 1
  11       11       12 1
  12       12       13 2
  13       13       14 1
  14       14       15 1
  15       15       16 1
  16       16       17 1
  17       14       18 2
  18       18       11 1
  19       10       19 1
  20       19       20 1
  21       20        7 1
  22        6       21 1
  23       21       22 1
  24       22        3 1
  25        3       23 1
  26        6       24 1
  27        7       25 1
  28       10       26 1
  29       17       27 1
  30       17       28 1
  31       17       29 1
  32        1       30 1
  33        1       31 1
  34        1       32 1
  35        2       33 1
  36        2       34 1
  37        4       35 1
  38        4       36 1
  39        5       37 1
  40        5       38 1
  41        8       39 1
  42        8       40 1
  43        9       41 1
  44        9       42 1
  45       15       43 1
  46       15       44 1
  47       16       45 1
  48       16       46 1
  49       19       47 1
  50       19       48 1
  51       20       49 1
  52       20       50 1
  53       21       51 1
  54       21       52 1
  55       22       53 1
  56       22       54 1

@<TRIPOS>MOLECULE

  54   56
SMALL
USER_CHARGES
@<TRIPOS>ATOM
   1 C1           2.9605    -6.5878     2.4591 C.3          1    LIG   0.0000
   2 C2           2.2425    -6.0856     1.2170 C.3          1    LIG   0.0000
   3 C3           2.2236    -4.5669     1.2224 C.3          1    LIG   0.0000
   4 C4           1.5077    -4.0519    -0.0157 C.3          1    LIG   0.0000
   5 C5           1.4769    -2.5317    -0.0120 C.3          1    LIG   0.0000
   6 C6           0.7627    -2.0307     1.2331 C.3          1    LIG   0.0000
   7 C7           0.7427    -0.5109     1.2396 C.3          1    LIG   0.0000
   8 C8           2.1665     0.0211     1.2329 C.3          1    LIG   0.0000
   9 C9           2.1566     1.5412     1.2289 C.3          1    LIG   0.0000
  10 C10          1.4121     2.0555     0.0075 C.3          1    LIG   0.0000
  11 N11          1.3968     3.5246     0.0077 N.pl3        1    LIG   0.0000
  12 N12          0.8741     4.2789     0.9433 N.2          1    LIG   0.0000
  13 N13          1.0265     5.4957     0.6491 N.2          1    LIG   0.0000
  14 C14          1.6825     5.5288    -0.5440 C.2          1    LIG   0.0000
  15 C15          2.0889     6.7814    -1.3041 C.3          1    LIG   0.0000
  16 C16          2.7993     6.3865    -2.5886 C.3          1    LIG   0.0000
  17 N17          3.1921     7.5975    -3.3235 N.4          1    LIG   1.0000
  18 N18          1.9011     4.2935    -0.9248 N.2          1    LIG   0.0000
  19 C19         -0.0105     1.5199     0.0052 C.3          1    LIG   0.0000
  20 C20          0.0041    -0.0002     0.0131 C.3          1    LIG   0.0000
  21 C21          1.4822    -2.5409     2.4716 C.3          1    LIG   0.0000
  22 C22          1.5123    -4.0606     2.4671 C.3          1    LIG   0.0000
  23 H            3.1643    -4.2276     1.2218 H            1    LIG   0.0000
  24 H           -0.1770    -2.3725     1.2338 H            1    LIG   0.0000
  25 H            0.2748    -0.1907     2.0633 H            1    LIG   0.0000
  26 H            1.8804     1.7360    -0.8163 H            1    LIG   0.0000
  27 H            3.6595     7.3377    -4.1685 H            1    LIG   0.0000
  28 H            2.3767     8.1325    -3.5445 H            1    LIG   0.0000
  29 H            3.8074     8.1461    -2.7574 H            1    LIG   0.0000
  30 H            2.9729    -7.5878     2.4555 H            1    LIG   0.0000
  31 H            3.8991    -6.2428     2.4639 H            1    LIG   0.0000
  32 H            2.4819    -6.2633     3.2749 H            1    LIG   0.0000
  33 H            2.7212    -6.4102     0.4012 H            1    LIG   0.0000
  34 H            1.3039    -6.4307     1.2122 H            1    LIG   0.0000
  35 H            0.5707    -4.4010    -0.0243 H            1    LIG   0.0000
  36 H            1.9896    -4.3703    -0.8320 H            1    LIG   0.0000
  37 H            2.4134    -2.1812    -0.0205 H            1    LIG   0.0000
  38 H            0.9925    -2.2081    -0.8248 H            1    LIG   0.0000
  39 H            2.6390    -0.3087     0.4156 H            1    LIG   0.0000
  40 H            2.6449    -0.3043     2.0486 H            1    LIG   0.0000
  41 H            1.7023     1.8712     2.0564 H            1    LIG   0.0000
  42 H            3.0979     1.8780     1.2086 H            1    LIG   0.0000
  43 H            2.7042     7.3300    -0.7380 H            1    LIG   0.0000
  44 H            1.2735     7.3164    -1.5251 H            1    LIG   0.0000
  45 H            3.6147     5.8515    -2.3676 H            1    LIG   0.0000
  46 H            2.1840     5.8380    -3.1547 H            1    LIG   0.0000
  47 H           -0.4839     1.8420    -0.8146 H            1    LIG   0.0000
  48 H           -0.4896     1.8503     0.8184 H            1    LIG   0.0000
  49 H           -0.9364    -0.3396     0.0286 H            1    LIG   0.0000
  50 H            0.4642    -0.3306    -0.8111 H            1    LIG   0.0000
  51 H            1.0018    -2.2218     3.2886 H            1    LIG   0.0000
  52 H            2.4190    -2.1912     2.4779 H            1    LIG   0.0000
  53 H            1.9975    -4.3839     3.2795 H            1    LIG   0.0000
  54 H            0.5753    -4.4098     2.4773 H            1    LIG   0.0000
@<TRIPOS>BOND
   1        1        2 1
   2        2        3 1
   3        3        4 1
   4        4        5 1
   5        5        6 1
   6        6        7 1
   7        7        8 1
   8        8        9 1
   9        9       10 1
  10       10       11 1
  11       11       12 1
  12       12       13 2
  13       13       14 1
  14       14       15 1
  15       15       16 1
  16       16       17 1
  17       14       18 2
  18       18       11 1
  19       10       19 1
  20       19       20 1
  21       20        7 1
  22        6       21 1
  23       21       22 1
  24       22        3 1
  25        3       23 1
  26        6       24 1
  27        7       25 1
  28       10       26 1
  29       17       27 1
  30       17       28 1
  31       17       29 1
  32        1       30 1
  33        1       31 1
  34        1       32 1
  35        2       33 1
  36        2       34 1
  37        4       35 1
  38        4       36 1
  39        5       37 1
  40        5       38 1
  41        8       39 1
  42        8       40 1
  43        9       41 1
  44        9       42 1
  45       15       43 1
  46       15       44 1
  47       16       45 1
  48       16       46 1
  49       19       47 1
  50       19       48 1
  51       20       49 1
  52       20       50 1
  53       21       51 1
  54       21       52 1
  55       22       53 1
  56       22       54 1

@<TRIPOS>MOLECULE

  54   56
SMALL
USER_CHARGES
@<TRIPOS>ATOM
   1 C1           0.8671    -6.6175     3.6773 C.3          1    LIG   0.0000
   2 C2           0.1112    -6.1189     2.4565 C.3          1    LIG   0.0000
   3 C3           0.0979    -4.5993     2.4547 C.3          1    LIG   0.0000
   4 C4          -0.6558    -4.0880     1.2377 C.3          1    LIG   0.0000
   5 C5          -0.6595    -2.5677     1.2397 C.3          1    LIG   0.0000
   6 C6           0.7627    -2.0306     1.2331 C.3          1    LIG   0.0000
   7 C7           0.7427    -0.5109     1.2396 C.3          1    LIG   0.0000
   8 C8           2.1665     0.0211     1.2329 C.3          1    LIG   0.0000
   9 C9           2.1566     1.5412     1.2289 C.3          1    LIG   0.0000
  10 C10          1.4121     2.0555     0.0075 C.3          1    LIG   0.0000
  11 N11          1.3968     3.5246     0.0077 N.pl3        1    LIG   0.0000
  12 N12          0.8741     4.2789     0.9433 N.2          1    LIG   0.0000
  13 N13          1.0265     5.4957     0.6491 N.2          1    LIG   0.0000
  14 C14          1.6825     5.5288    -0.5440 C.2          1    LIG   0.0000
  15 C15          2.0889     6.7814    -1.3041 C.3          1    LIG   0.0000
  16 C16          1.6493     8.0111    -0.5263 C.3          1    LIG   0.0000
  17 N17          2.0421     9.2221    -1.2612 N.4          1    LIG   1.0000
  18 N18          1.9011     4.2935    -0.9248 N.2          1    LIG   0.0000
  19 C19         -0.0105     1.5199     0.0052 C.3          1    LIG   0.0000
  20 C20          0.0041    -0.0002     0.0131 C.3          1    LIG   0.0000
  21 C21          1.5068    -2.5462     2.4545 C.3          1    LIG   0.0000
  22 C22          1.5214    -4.0663     2.4571 C.3          1    LIG   0.0000
  23 H           -0.3676    -4.2799     3.2801 H            1    LIG   0.0000
  24 H            1.2289    -2.3484     0.4075 H            1    LIG   0.0000
  25 H            0.2748    -0.1907     2.0633 H            1    LIG   0.0000
  26 H            1.8804     1.7360    -0.8163 H            1    LIG   0.0000
  27 H            1.7529    10.0311    -0.7494 H            1    LIG   0.0000
  28 H            3.0357     9.2362    -1.3734 H            1    LIG   0.0000
  29 H            1.6050     9.2227    -2.1605 H            1    LIG   0.0000
  30 H            0.8759    -7.6175     3.6784 H            1    LIG   0.0000
  31 H            1.8065    -6.2760     3.6501 H            1    LIG   0.0000
  32 H            0.4161    -6.2872     4.5064 H            1    LIG   0.0000
  33 H            0.5622    -6.4492     1.6273 H            1    LIG   0.0000
  34 H           -0.8283    -6.4605     2.4836 H            1    LIG   0.0000
  35 H           -1.5977    -4.4228     1.2649 H            1    LIG   0.0000
  36 H           -0.2085    -4.4183     0.4065 H            1    LIG   0.0000
  37 H           -1.1390    -2.2389     0.4261 H            1    LIG   0.0000
  38 H           -1.1306    -2.2411     2.0591 H            1    LIG   0.0000
  39 H            2.6390    -0.3087     0.4156 H            1    LIG   0.0000
  40 H            2.6449    -0.3043     2.0486 H            1    LIG   0.0000
  41 H            1.7023     1.8712     2.0564 H            1    LIG   0.0000
  42 H            3.0979     1.8780     1.2086 H            1    LIG   0.0000
  43 H            1.6517     6.7820    -2.2035 H            1    LIG   0.0000
  44 H            3.0825     6.7956    -1.4164 H            1    LIG   0.0000
  45 H            0.6557     7.9969    -0.4140 H            1    LIG   0.0000
  46 H            2.0864     8.0104     0.3731 H            1    LIG   0.0000
  47 H           -0.4839     1.8420    -0.8146 H            1    LIG   0.0000
  48 H           -0.4896     1.8503     0.8184 H            1    LIG   0.0000
  49 H           -0.9364    -0.3396     0.0286 H            1    LIG   0.0000
  50 H            0.4642    -0.3306    -0.8111 H            1    LIG   0.0000
  51 H            1.0504    -2.2188     3.2819 H            1    LIG   0.0000
  52 H            2.4472    -2.2069     2.4360 H            1    LIG   0.0000
  53 H            1.9993    -4.3943     1.6423 H            1    LIG   0.0000
  54 H            1.9955    -4.3916     3.2753 H            1    LIG   0.0000
@<TRIPOS>BOND
   1        1        2 1
   2        2        3 1
   3        3        4 1
   4        4        5 1
   5        5        6 1
   6        6        7 1
   7        7        8 1
   8        8        9 1
   9        9       10 1
  10       10       11 1
  11       11       12 1
  12       12       13 2
  13       13       14 1
  14       14       15 1
  15       15       16 1
  16       16       17 1
  17       14       18 2
  18       18       11 1
  19       10       19 1
  20       19       20 1
  21       20        7 1
  22        6       21 1
  23       21       22 1
  24       22        3 1
  25        3       23 1
  26        6       24 1
  27        7       25 1
  28       10       26 1
  29       17       27 1
  30       17       28 1
  31       17       29 1
  32        1       30 1
  33        1       31 1
  34        1       32 1
  35        2       33 1
  36        2       34 1
  37        4       35 1
  38        4       36 1
  39        5       37 1
  40        5       38 1
  41        8       39 1
  42        8       40 1
  43        9       41 1
  44        9       42 1
  45       15       43 1
  46       15       44 1
  47       16       45 1
  48       16       46 1
  49       19       47 1
  50       19       48 1
  51       20       49 1
  52       20       50 1
  53       21       51 1
  54       21       52 1
  55       22       53 1
  56       22       54 1

@<TRIPOS>MOLECULE

  54   56
SMALL
USER_CHARGES
@<TRIPOS>ATOM
   1 C1           2.9605    -6.5878     2.4591 C.3          1    LIG   0.0000
   2 C2           2.2425    -6.0856     1.2170 C.3          1    LIG   0.0000
   3 C3           2.2236    -4.5669     1.2224 C.3          1    LIG   0.0000
   4 C4           1.5077    -4.0519    -0.0157 C.3          1    LIG   0.0000
   5 C5           1.4769    -2.5317    -0.0120 C.3          1    LIG   0.0000
   6 C6           0.7627    -2.0307     1.2331 C.3          1    LIG   0.0000
   7 C7           0.7427    -0.5109     1.2396 C.3          1    LIG   0.0000
   8 C8           2.1665     0.0211     1.2329 C.3          1    LIG   0.0000
   9 C9           2.1566     1.5412     1.2289 C.3          1    LIG   0.0000
  10 C10          1.4121     2.0555     0.0075 C.3          1    LIG   0.0000
  11 N11          1.3968     3.5246     0.0077 N.pl3        1    LIG   0.0000
  12 N12          0.8361     4.2787    -0.9059 N.2          1    LIG   0.0000
  13 N13          0.9959     5.4955    -0.6156 N.2          1    LIG   0.0000
  14 C14          1.7006     5.5289     0.5493 C.2          1    LIG   0.0000
  15 C15          2.1364     6.7816     1.2928 C.3          1    LIG   0.0000
  16 C16          2.8997     6.3870     2.5466 C.3          1    LIG   0.0000
  17 N17          3.3210     7.5981     3.2653 N.4          1    LIG   1.0000
  18 N18          1.9403     4.2937     0.9177 N.2          1    LIG   0.0000
  19 C19         -0.0105     1.5199     0.0052 C.3          1    LIG   0.0000
  20 C20          0.0041    -0.0002     0.0131 C.3          1    LIG   0.0000
  21 C21          1.4822    -2.5409     2.4716 C.3          1    LIG   0.0000
  22 C22          1.5123    -4.0606     2.4671 C.3          1    LIG   0.0000
  23 H            3.1643    -4.2276     1.2218 H            1    LIG   0.0000
  24 H           -0.1770    -2.3725     1.2338 H            1    LIG   0.0000
  25 H            0.2748    -0.1907     2.0633 H            1    LIG   0.0000
  26 H            1.8804     1.7360    -0.8163 H            1    LIG   0.0000
  27 H            3.8232     7.3385     4.0902 H            1    LIG   0.0000
  28 H            3.9116     8.1478     2.6746 H            1    LIG   0.0000
  29 H            2.5147     8.1319     3.5202 H            1    LIG   0.0000
  30 H            2.9729    -7.5878     2.4555 H            1    LIG   0.0000
  31 H            3.8991    -6.2428     2.4639 H            1    LIG   0.0000
  32 H            2.4819    -6.2633     3.2749 H            1    LIG   0.0000
  33 H            2.7212    -6.4102     0.4012 H            1    LIG   0.0000
  34 H            1.3039    -6.4307     1.2122 H            1    LIG   0.0000
  35 H            0.5707    -4.4010    -0.0243 H            1    LIG   0.0000
  36 H            1.9896    -4.3703    -0.8320 H            1    LIG   0.0000
  37 H            2.4134    -2.1812    -0.0205 H            1    LIG   0.0000
  38 H            0.9925    -2.2081    -0.8248 H            1    LIG   0.0000
  39 H            2.6390    -0.3087     0.4156 H            1    LIG   0.0000
  40 H            2.6449    -0.3043     2.0486 H            1    LIG   0.0000
  41 H            1.7023     1.8712     2.0564 H            1    LIG   0.0000
  42 H            3.0979     1.8780     1.2086 H            1    LIG   0.0000
  43 H            1.3301     7.3154     1.5476 H            1    LIG   0.0000
  44 H            2.7270     7.3313     0.7021 H            1    LIG   0.0000
  45 H            2.3091     5.8373     3.1373 H            1    LIG   0.0000
  46 H            3.7060     5.8532     2.2918 H            1    LIG   0.0000
  47 H           -0.4839     1.8420    -0.8146 H            1    LIG   0.0000
  48 H           -0.4896     1.8503     0.8184 H            1    LIG   0.0000
  49 H           -0.9364    -0.3396     0.0286 H            1    LIG   0.0000
  50 H            0.4642    -0.3306    -0.8111 H            1    LIG   0.0000
  51 H            1.0018    -2.2218     3.2886 H            1    LIG   0.0000
  52 H            2.4190    -2.1912     2.4779 H            1    LIG   0.0000
  53 H            1.9975    -4.3839     3.2795 H            1    LIG   0.0000
  54 H            0.5753    -4.4098     2.4773 H            1    LIG   0.0000
@<TRIPOS>BOND
   1        1        2 1
   2        2        3 1
   3        3        4 1
   4        4        5 1
   5        5        6 1
   6        6        7 1
   7        7        8 1
   8        8        9 1
   9        9       10 1
  10       10       11 1
  11       11       12 1
  12       12       13 2
  13       13       14 1
  14       14       15 1
  15       15       16 1
  16       16       17 1
  17       14       18 2
  18       18       11 1
  19       10       19 1
  20       19       20 1
  21       20        7 1
  22        6       21 1
  23       21       22 1
  24       22        3 1
  25        3       23 1
  26        6       24 1
  27        7       25 1
  28       10       26 1
  29       17       27 1
  30       17       28 1
  31       17       29 1
  32        1       30 1
  33        1       31 1
  34        1       32 1
  35        2       33 1
  36        2       34 1
  37        4       35 1
  38        4       36 1
  39        5       37 1
  40        5       38 1
  41        8       39 1
  42        8       40 1
  43        9       41 1
  44        9       42 1
  45       15       43 1
  46       15       44 1
  47       16       45 1
  48       16       46 1
  49       19       47 1
  50       19       48 1
  51       20       49 1
  52       20       50 1
  53       21       51 1
  54       21       52 1
  55       22       53 1
  56       22       54 1

@<TRIPOS>MOLECULE

  54   56
SMALL
USER_CHARGES
@<TRIPOS>ATOM
   1 C1           1.8981    -6.7752     1.7918 C.3          1    LIG   0.0000
   2 C2           1.3164    -5.8650     2.8611 C.3          1    LIG   0.0000
   3 C3           1.5172    -4.4143     2.4555 C.3          1    LIG   0.0000
   4 C4           0.9391    -3.4933     3.5176 C.3          1    LIG   0.0000
   5 C5           1.1382    -2.0445     3.1020 C.3          1    LIG   0.0000
   6 C6           0.4698    -1.7769     1.7631 C.3          1    LIG   0.0000
   7 C7           0.6810    -0.3269     1.3592 C.3          1    LIG   0.0000
   8 C8           2.1659    -0.0201     1.2339 C.3          1    LIG   0.0000
   9 C9           2.4075     1.4100     0.7724 C.3          1    LIG   0.0000
  10 C10          1.1030     2.1632     0.5593 C.3          1    LIG   0.0000
  11 N11          1.3736     3.5179     0.0592 N.pl3        1    LIG   0.0000
  12 N12          1.9990     3.8052    -1.0561 N.2          1    LIG   0.0000
  13 N13          2.0670     5.0562    -1.2002 N.2          1    LIG   0.0000
  14 C14          1.4529     5.6072    -0.1167 C.2          1    LIG   0.0000
  15 C15          1.2872     7.0941     0.1546 C.3          1    LIG   0.0000
  16 C16          0.5471     7.2903     1.4677 C.3          1    LIG   0.0000
  17 N17          0.3870     8.7278     1.7299 N.4          1    LIG   1.0000
  18 N18          1.0311     4.6336     0.6533 N.2          1    LIG   0.0000
  19 C19          0.2593     1.3826    -0.4378 C.3          1    LIG   0.0000
  20 C20          0.0121    -0.0477     0.0227 C.3          1    LIG   0.0000
  21 C21          1.0559    -2.7014     0.7081 C.3          1    LIG   0.0000
  22 C22          0.8552    -4.1529     1.1124 C.3          1    LIG   0.0000
  23 H            2.4975    -4.2354     2.3722 H            1    LIG   0.0000
  24 H           -0.5109    -1.9543     1.8455 H            1    LIG   0.0000
  25 H            0.2813     0.2686     2.0561 H            1    LIG   0.0000
  26 H            0.6126     2.2248     1.4286 H            1    LIG   0.0000
  27 H           -0.0999     8.8568     2.5938 H            1    LIG   0.0000
  28 H            1.2877     9.1585     1.7874 H            1    LIG   0.0000
  29 H           -0.1357     9.1460     0.9870 H            1    LIG   0.0000
  30 H            1.7660    -7.7298     2.0587 H            1    LIG   0.0000
  31 H            1.4355    -6.6053     0.9216 H            1    LIG   0.0000
  32 H            2.8756    -6.5894     1.6915 H            1    LIG   0.0000
  33 H            0.3389    -6.0508     2.9613 H            1    LIG   0.0000
  34 H            1.7790    -6.0349     3.7312 H            1    LIG   0.0000
  35 H            1.4039    -3.6564     4.3879 H            1    LIG   0.0000
  36 H           -0.0381    -3.6780     3.6219 H            1    LIG   0.0000
  37 H            0.7376    -1.4454     3.7952 H            1    LIG   0.0000
  38 H            2.1173    -1.8563     3.0243 H            1    LIG   0.0000
  39 H            2.5718    -0.6480     0.5698 H            1    LIG   0.0000
  40 H            2.6004    -0.1509     2.1250 H            1    LIG   0.0000
  41 H            2.9471     1.8871     1.4660 H            1    LIG   0.0000
  42 H            2.9145     1.3907    -0.0893 H            1    LIG   0.0000
  43 H            0.7645     7.5123    -0.5883 H            1    LIG   0.0000
  44 H            2.1879     7.5249     0.2120 H            1    LIG   0.0000
  45 H           -0.3535     6.8596     1.4102 H            1    LIG   0.0000
  46 H            1.0698     6.8721     2.2106 H            1    LIG   0.0000
  47 H            0.7353     1.3613    -1.3170 H            1    LIG   0.0000
  48 H           -0.6214     1.8438    -0.5467 H            1    LIG   0.0000
  49 H           -0.9728    -0.1934     0.1157 H            1    LIG   0.0000
  50 H            0.3791    -0.6774    -0.6620 H            1    LIG   0.0000
  51 H            2.0342    -2.5169     0.6140 H            1    LIG   0.0000
  52 H            0.5999    -2.5359    -0.1663 H            1    LIG   0.0000
  53 H           -0.1237    -4.3448     1.1826 H            1    LIG   0.0000
  54 H            1.2629    -4.7489     0.4205 H            1    LIG   0.0000
@<TRIPOS>BOND
   1        1        2 1
   2        2        3 1
   3        3        4 1
   4        4        5 1
   5        5        6 1
   6        6        7 1
   7        7        8 1
   8        8        9 1
   9        9       10 1
  10       10       11 1
  11       11       12 1
  12       12       13 2
  13       13       14 1
  14       14       15 1
  15       15       16 1
  16       16       17 1
  17       14       18 2
  18       18       11 1
  19       10       19 1
  20       19       20 1
  21       20        7 1
  22        6       21 1
  23       21       22 1
  24       22        3 1
  25        3       23 1
  26        6       24 1
  27        7       25 1
  28       10       26 1
  29       17       27 1
  30       17       28 1
  31       17       29 1
  32        1       30 1
  33        1       31 1
  34        1       32 1
  35        2       33 1
  36        2       34 1
  37        4       35 1
  38        4       36 1
  39        5       37 1
  40        5       38 1
  41        8       39 1
  42        8       40 1
  43        9       41 1
  44        9       42 1
  45       15       43 1
  46       15       44 1
  47       16       45 1
  48       16       46 1
  49       19       47 1
  50       19       48 1
  51       20       49 1
  52       20       50 1
  53       21       51 1
  54       21       52 1
  55       22       53 1
  56       22       54 1

@<TRIPOS>MOLECULE

  54   56
SMALL
USER_CHARGES
@<TRIPOS>ATOM
   1 C1          -2.3249    -6.1602     1.7914 C.3          1    LIG   0.0000
   2 C2          -0.8362    -5.8897     1.6463 C.3          1    LIG   0.0000
   3 C3          -0.6212    -4.4380     1.2522 C.3          1    LIG   0.0000
   4 C4           0.8649    -4.1547     1.1038 C.3          1    LIG   0.0000
   5 C5           1.0721    -2.6995     0.7156 C.3          1    LIG   0.0000
   6 C6           0.4698    -1.7769     1.7631 C.3          1    LIG   0.0000
   7 C7           0.6810    -0.3269     1.3592 C.3          1    LIG   0.0000
   8 C8           2.1659    -0.0201     1.2339 C.3          1    LIG   0.0000
   9 C9           2.4075     1.4100     0.7724 C.3          1    LIG   0.0000
  10 C10          1.1030     2.1632     0.5593 C.3          1    LIG   0.0000
  11 N11          1.3736     3.5179     0.0592 N.pl3        1    LIG   0.0000
  12 N12          1.9990     3.8052    -1.0561 N.2          1    LIG   0.0000
  13 N13          2.0670     5.0562    -1.2002 N.2          1    LIG   0.0000
  14 C14          1.4529     5.6072    -0.1167 C.2          1    LIG   0.0000
  15 C15          1.2872     7.0941     0.1546 C.3          1    LIG   0.0000
  16 C16          1.9169     7.8890    -0.9777 C.3          1    LIG   0.0000
  17 N17          1.7568     9.3265    -0.7155 N.4          1    LIG   1.0000
  18 N18          1.0311     4.6336     0.6533 N.2          1    LIG   0.0000
  19 C19          0.2593     1.3826    -0.4378 C.3          1    LIG   0.0000
  20 C20          0.0121    -0.0477     0.0227 C.3          1    LIG   0.0000
  21 C21         -1.0160    -2.0670     1.9024 C.3          1    LIG   0.0000
  22 C22         -1.2325    -3.5188     2.2972 C.3          1    LIG   0.0000
  23 H           -1.0704    -4.2721     0.3743 H            1    LIG   0.0000
  24 H            0.9191    -1.9410     2.6412 H            1    LIG   0.0000
  25 H            0.2813     0.2686     2.0561 H            1    LIG   0.0000
  26 H            0.6126     2.2248     1.4286 H            1    LIG   0.0000
  27 H            2.1710     9.8494    -1.4604 H            1    LIG   0.0000
  28 H            0.7835     9.5477    -0.6540 H            1    LIG   0.0000
  29 H            2.2068     9.5603     0.1464 H            1    LIG   0.0000
  30 H           -2.4664    -7.1155     2.0507 H            1    LIG   0.0000
  31 H           -2.7048    -5.5632     2.4980 H            1    LIG   0.0000
  32 H           -2.7829    -5.9797     0.9209 H            1    LIG   0.0000
  33 H           -0.3783    -6.0702     2.5167 H            1    LIG   0.0000
  34 H           -0.4563    -6.4867     0.9397 H            1    LIG   0.0000
  35 H            1.2468    -4.7460     0.3935 H            1    LIG   0.0000
  36 H            1.3263    -4.3362     1.9722 H            1    LIG   0.0000
  37 H            2.0522    -2.5157     0.6399 H            1    LIG   0.0000
  38 H            0.6318    -2.5283    -0.1657 H            1    LIG   0.0000
  39 H            2.5718    -0.6480     0.5698 H            1    LIG   0.0000
  40 H            2.6004    -0.1509     2.1250 H            1    LIG   0.0000
  41 H            2.9471     1.8871     1.4660 H            1    LIG   0.0000
  42 H            2.9145     1.3907    -0.0893 H            1    LIG   0.0000
  43 H            1.7373     7.3279     1.0164 H            1    LIG   0.0000
  44 H            0.3139     7.3154     0.2161 H            1    LIG   0.0000
  45 H            2.8902     7.6677    -1.0392 H            1    LIG   0.0000
  46 H            1.4668     7.6552    -1.8396 H            1    LIG   0.0000
  47 H            0.7353     1.3613    -1.3170 H            1    LIG   0.0000
  48 H           -0.6214     1.8438    -0.5467 H            1    LIG   0.0000
  49 H           -0.9728    -0.1934     0.1157 H            1    LIG   0.0000
  50 H            0.3791    -0.6774    -0.6620 H            1    LIG   0.0000
  51 H           -1.4703    -1.8908     1.0291 H            1    LIG   0.0000
  52 H           -1.4043    -1.4718     2.6060 H            1    LIG   0.0000
  53 H           -0.7996    -3.6895     3.1823 H            1    LIG   0.0000
  54 H           -2.2134    -3.7009     2.3653 H            1    LIG   0.0000
@<TRIPOS>BOND
   1        1        2 1
   2        2        3 1
   3        3        4 1
   4        4        5 1
   5        5        6 1
   6        6        7 1
   7        7        8 1
   8        8        9 1
   9        9       10 1
  10       10       11 1
  11       11       12 1
  12       12       13 2
  13       13       14 1
  14       14       15 1
  15       15       16 1
  16       16       17 1
  17       14       18 2
  18       18       11 1
  19       10       19 1
  20       19       20 1
  21       20        7 1
  22        6       21 1
  23       21       22 1
  24       22        3 1
  25        3       23 1
  26        6       24 1
  27        7       25 1
  28       10       26 1
  29       17       27 1
  30       17       28 1
  31       17       29 1
  32        1       30 1
  33        1       31 1
  34        1       32 1
  35        2       33 1
  36        2       34 1
  37        4       35 1
  38        4       36 1
  39        5       37 1
  40        5       38 1
  41        8       39 1
  42        8       40 1
  43        9       41 1
  44        9       42 1
  45       15       43 1
  46       15       44 1
  47       16       45 1
  48       16       46 1
  49       19       47 1
  50       19       48 1
  51       20       49 1
  52       20       50 1
  53       21       51 1
  54       21       52 1
  55       22       53 1
  56       22       54 1

@<TRIPOS>MOLECULE

  54   56
SMALL
USER_CHARGES
@<TRIPOS>ATOM
   1 C1          -0.0722    -5.4959     5.3546 C.3          1    LIG   0.0000
   2 C2          -0.7693    -5.2358     4.0291 C.3          1    LIG   0.0000
   3 C3          -0.5516    -3.7893     3.6177 C.3          1    LIG   0.0000
   4 C4          -1.2445    -3.5164     2.2925 C.3          1    LIG   0.0000
   5 C5          -1.0171    -2.0696     1.8846 C.3          1    LIG   0.0000
   6 C6           0.4698    -1.7769     1.7631 C.3          1    LIG   0.0000
   7 C7           0.6810    -0.3269     1.3592 C.3          1    LIG   0.0000
   8 C8           2.1659    -0.0201     1.2339 C.3          1    LIG   0.0000
   9 C9           2.4075     1.4100     0.7724 C.3          1    LIG   0.0000
  10 C10          1.1030     2.1632     0.5593 C.3          1    LIG   0.0000
  11 N11          1.3736     3.5179     0.0592 N.pl3        1    LIG   0.0000
  12 N12          1.9990     3.8052    -1.0561 N.2          1    LIG   0.0000
  13 N13          2.0670     5.0562    -1.2002 N.2          1    LIG   0.0000
  14 C14          1.4529     5.6072    -0.1167 C.2          1    LIG   0.0000
  15 C15          1.2872     7.0941     0.1546 C.3          1    LIG   0.0000
  16 C16          2.4811     7.6006     0.9473 C.3          1    LIG   0.0000
  17 N17          2.3210     9.0382     1.2096 N.4          1    LIG   1.0000
  18 N18          1.0311     4.6336     0.6533 N.2          1    LIG   0.0000
  19 C19          0.2593     1.3826    -0.4378 C.3          1    LIG   0.0000
  20 C20          0.0121    -0.0477     0.0227 C.3          1    LIG   0.0000
  21 C21          1.1526    -2.0511     3.0934 C.3          1    LIG   0.0000
  22 C22          0.9361    -3.4981     3.5059 C.3          1    LIG   0.0000
  23 H           -0.9455    -3.1923     4.3166 H            1    LIG   0.0000
  24 H            0.8646    -2.3724     1.0635 H            1    LIG   0.0000
  25 H            0.2813     0.2686     2.0561 H            1    LIG   0.0000
  26 H            0.6126     2.2248     1.4286 H            1    LIG   0.0000
  27 H            3.1064     9.3714     1.7311 H            1    LIG   0.0000
  28 H            2.2640     9.5311     0.3414 H            1    LIG   0.0000
  29 H            1.4836     9.1900     1.7346 H            1    LIG   0.0000
  30 H           -0.2154    -6.4479     5.6254 H            1    LIG   0.0000
  31 H            0.9075    -5.3213     5.2559 H            1    LIG   0.0000
  32 H           -0.4500    -4.8898     6.0545 H            1    LIG   0.0000
  33 H           -0.3914    -5.8420     3.3292 H            1    LIG   0.0000
  34 H           -1.7489    -5.4105     4.1278 H            1    LIG   0.0000
  35 H           -2.2255    -3.6843     2.3894 H            1    LIG   0.0000
  36 H           -0.8703    -4.1225     1.5906 H            1    LIG   0.0000
  37 H           -1.4582    -1.9033     1.0027 H            1    LIG   0.0000
  38 H           -1.4156    -1.4666     2.5757 H            1    LIG   0.0000
  39 H            2.5718    -0.6480     0.5698 H            1    LIG   0.0000
  40 H            2.6004    -0.1509     2.1250 H            1    LIG   0.0000
  41 H            2.9471     1.8871     1.4660 H            1    LIG   0.0000
  42 H            2.9145     1.3907    -0.0893 H            1    LIG   0.0000
  43 H            0.4498     7.2459     0.6796 H            1    LIG   0.0000
  44 H            1.2302     7.5870    -0.7136 H            1    LIG   0.0000
  45 H            2.5381     7.1077     1.8156 H            1    LIG   0.0000
  46 H            3.3185     7.4488     0.4223 H            1    LIG   0.0000
  47 H            0.7353     1.3613    -1.3170 H            1    LIG   0.0000
  48 H           -0.6214     1.8438    -0.5467 H            1    LIG   0.0000
  49 H           -0.9728    -0.1934     0.1157 H            1    LIG   0.0000
  50 H            0.3791    -0.6774    -0.6620 H            1    LIG   0.0000
  51 H            0.7690    -1.4475     3.7922 H            1    LIG   0.0000
  52 H            2.1331    -1.8764     3.0037 H            1    LIG   0.0000
  53 H            1.3412    -4.1023     2.8197 H            1    LIG   0.0000
  54 H            1.3726    -3.6590     4.3911 H            1    LIG   0.0000
@<TRIPOS>BOND
   1        1        2 1
   2        2        3 1
   3        3        4 1
   4        4        5 1
   5        5        6 1
   6        6        7 1
   7        7        8 1
   8        8        9 1
   9        9       10 1
  10       10       11 1
  11       11       12 1
  12       12       13 2
  13       13       14 1
  14       14       15 1
  15       15       16 1
  16       16       17 1
  17       14       18 2
  18       18       11 1
  19       10       19 1
  20       19       20 1
  21       20        7 1
  22        6       21 1
  23       21       22 1
  24       22        3 1
  25        3       23 1
  26        6       24 1
  27        7       25 1
  28       10       26 1
  29       17       27 1
  30       17       28 1
  31       17       29 1
  32        1       30 1
  33        1       31 1
  34        1       32 1
  35        2       33 1
  36        2       34 1
  37        4       35 1
  38        4       36 1
  39        5       37 1
  40        5       38 1
  41        8       39 1
  42        8       40 1
  43        9       41 1
  44        9       42 1
  45       15       43 1
  46       15       44 1
  47       16       45 1
  48       16       46 1
  49       19       47 1
  50       19       48 1
  51       20       49 1
  52       20       50 1
  53       21       51 1
  54       21       52 1
  55       22       53 1
  56       22       54 1

@<TRIPOS>MOLECULE

  54   56
SMALL
USER_CHARGES
@<TRIPOS>ATOM
   1 C1          -1.0694    -6.4271     2.0723 C.3          1    LIG   0.0000
   2 C2          -0.2275    -5.6658     3.0833 C.3          1    LIG   0.0000
   3 C3           0.0466    -4.2661     2.5621 C.3          1    LIG   0.0000
   4 C4           0.8891    -3.4880     3.5617 C.3          1    LIG   0.0000
   5 C5           1.1344    -2.0579     3.1022 C.3          1    LIG   0.0000
   6 C6           0.4699    -1.7761     1.7628 C.3          1    LIG   0.0000
   7 C7           0.6810    -0.3269     1.3592 C.3          1    LIG   0.0000
   8 C8           2.1659    -0.0201     1.2339 C.3          1    LIG   0.0000
   9 C9           2.4075     1.4100     0.7724 C.3          1    LIG   0.0000
  10 C10          1.1030     2.1632     0.5593 C.3          1    LIG   0.0000
  11 N11          1.3736     3.5179     0.0592 N.pl3        1    LIG   0.0000
  12 N12          0.4648     4.4186    -0.2246 N.2          1    LIG   0.0000
  13 N13          1.0201     5.4766    -0.6277 N.2          1    LIG   0.0000
  14 C14          2.3621     5.2455    -0.6046 C.2          1    LIG   0.0000
  15 C15          3.4447     6.2340    -1.0081 C.3          1    LIG   0.0000
  16 C16          3.7453     6.0792    -2.4900 C.3          1    LIG   0.0000
  17 N17          4.7919     7.0349    -2.8802 N.4          1    LIG   1.0000
  18 N18          2.5590     4.0222    -0.1762 N.2          1    LIG   0.0000
  19 C19          0.2593     1.3826    -0.4378 C.3          1    LIG   0.0000
  20 C20          0.0121    -0.0477     0.0227 C.3          1    LIG   0.0000
  21 C21         -1.0149    -2.0804     1.8829 C.3          1    LIG   0.0000
  22 C22         -1.2565    -3.5106     2.3466 C.3          1    LIG   0.0000
  23 H            0.5390    -4.3283     1.6939 H            1    LIG   0.0000
  24 H            0.8709    -2.3716     1.0667 H            1    LIG   0.0000
  25 H            0.2813     0.2686     2.0561 H            1    LIG   0.0000
  26 H            0.6126     2.2248     1.4286 H            1    LIG   0.0000
  27 H            4.9896     6.9331    -3.8551 H            1    LIG   0.0000
  28 H            4.4766     7.9666    -2.6995 H            1    LIG   0.0000
  29 H            5.6213     6.8552    -2.3512 H            1    LIG   0.0000
  30 H           -1.2499    -7.3488     2.4156 H            1    LIG   0.0000
  31 H           -1.9359    -5.9480     1.9320 H            1    LIG   0.0000
  32 H           -0.5762    -6.4853     1.2043 H            1    LIG   0.0000
  33 H           -0.7206    -5.6076     3.9513 H            1    LIG   0.0000
  34 H            0.6390    -6.1449     3.2237 H            1    LIG   0.0000
  35 H            1.7700    -3.9486     3.6703 H            1    LIG   0.0000
  36 H            0.4125    -3.4683     4.4406 H            1    LIG   0.0000
  37 H            0.7641    -1.4295     3.7864 H            1    LIG   0.0000
  38 H            2.1194    -1.9105     3.0128 H            1    LIG   0.0000
  39 H            2.5718    -0.6480     0.5698 H            1    LIG   0.0000
  40 H            2.6004    -0.1509     2.1250 H            1    LIG   0.0000
  41 H            2.9471     1.8871     1.4660 H            1    LIG   0.0000
  42 H            2.9145     1.3907    -0.0893 H            1    LIG   0.0000
  43 H            4.2741     6.0544    -0.4792 H            1    LIG   0.0000
  44 H            3.1294     7.1657    -0.8275 H            1    LIG   0.0000
  45 H            4.0605     5.1476    -2.6707 H            1    LIG   0.0000
  46 H            2.9159     6.2589    -3.0190 H            1    LIG   0.0000
  47 H            0.7353     1.3613    -1.3170 H            1    LIG   0.0000
  48 H           -0.6214     1.8438    -0.5467 H            1    LIG   0.0000
  49 H           -0.9728    -0.1934     0.1157 H            1    LIG   0.0000
  50 H            0.3791    -0.6774    -0.6620 H            1    LIG   0.0000
  51 H           -1.4462    -1.9512     0.9900 H            1    LIG   0.0000
  52 H           -1.4230    -1.4511     2.5444 H            1    LIG   0.0000
  53 H           -1.7640    -3.4896     3.2080 H            1    LIG   0.0000
  54 H           -1.7961    -3.9883     1.6533 H            1    LIG   0.0000
@<TRIPOS>BOND
   1        1        2 1
   2        2        3 1
   3        3        4 1
   4        4        5 1
   5        5        6 1
   6        6        7 1
   7        7        8 1
   8        8        9 1
   9        9       10 1
  10       10       11 1
  11       11       12 1
  12       12       13 2
  13       13       14 1
  14       14       15 1
  15       15       16 1
  16       16       17 1
  17       14       18 2
  18       18       11 1
  19       10       19 1
  20       19       20 1
  21       20        7 1
  22        6       21 1
  23       21       22 1
  24       22        3 1
  25        3       23 1
  26        6       24 1
  27        7       25 1
  28       10       26 1
  29       17       27 1
  30       17       28 1
  31       17       29 1
  32        1       30 1
  33        1       31 1
  34        1       32 1
  35        2       33 1
  36        2       34 1
  37        4       35 1
  38        4       36 1
  39        5       37 1
  40        5       38 1
  41        8       39 1
  42        8       40 1
  43        9       41 1
  44        9       42 1
  45       15       43 1
  46       15       44 1
  47       16       45 1
  48       16       46 1
  49       19       47 1
  50       19       48 1
  51       20       49 1
  52       20       50 1
  53       21       51 1
  54       21       52 1
  55       22       53 1
  56       22       54 1

