@<TRIPOS>MOLECULE
*****
 54 56 0 0 0
SMALL
USER_CHARGES

@<TRIPOS>ATOM
      1 C1         -2.3249   -6.1602    1.7914 C.3     1  LIG1        0.0000
      2 C2         -0.8362   -5.8897    1.6463 C.3     1  LIG1        0.0000
      3 C3         -0.6212   -4.4380    1.2522 C.3     1  LIG1        0.0000
      4 C4          0.8649   -4.1547    1.1038 C.3     1  LIG1        0.0000
      5 C5          1.0721   -2.6995    0.7156 C.3     1  LIG1        0.0000
      6 C6          0.4698   -1.7769    1.7631 C.3     1  LIG1        0.0000
      7 C7          0.6810   -0.3269    1.3592 C.3     1  LIG1        0.0000
      8 C8          2.1659   -0.0201    1.2339 C.3     1  LIG1        0.0000
      9 C9          2.4075    1.4100    0.7724 C.3     1  LIG1        0.0000
     10 C10         1.1030    2.1632    0.5593 C.3     1  LIG1        0.0000
     11 N11         1.3736    3.5179    0.0592 N.pl3   1  LIG1        0.0000
     12 N12         1.9990    3.8052   -1.0561 N.2     1  LIG1        0.0000
     13 N13         2.0670    5.0562   -1.2002 N.2     1  LIG1        0.0000
     14 C14         1.4529    5.6072   -0.1167 C.2     1  LIG1        0.0000
     15 C15         1.2872    7.0941    0.1546 C.3     1  LIG1        0.0000
     16 C16         1.9169    7.8890   -0.9777 C.3     1  LIG1        0.0000
     17 N17         1.7568    9.3265   -0.7155 N.4     1  LIG1        1.0000
     18 N18         1.0311    4.6336    0.6533 N.2     1  LIG1        0.0000
     19 C19         0.2593    1.3826   -0.4378 C.3     1  LIG1        0.0000
     20 C20         0.0121   -0.0477    0.0227 C.3     1  LIG1        0.0000
     21 C21        -1.0160   -2.0670    1.9024 C.3     1  LIG1        0.0000
     22 C22        -1.2325   -3.5188    2.2972 C.3     1  LIG1        0.0000
     23 H          -1.0704   -4.2721    0.3743 H       1  LIG1        0.0000
     24 H           0.9191   -1.9410    2.6412 H       1  LIG1        0.0000
     25 H           0.2813    0.2686    2.0561 H       1  LIG1        0.0000
     26 H           0.6126    2.2248    1.4286 H       1  LIG1        0.0000
     27 H           2.1710    9.8494   -1.4604 H       1  LIG1        0.0000
     28 H           0.7835    9.5477   -0.6540 H       1  LIG1        0.0000
     29 H           2.2068    9.5603    0.1464 H       1  LIG1        0.0000
     30 H          -2.4664   -7.1155    2.0507 H       1  LIG1        0.0000
     31 H          -2.7048   -5.5632    2.4980 H       1  LIG1        0.0000
     32 H          -2.7829   -5.9797    0.9209 H       1  LIG1        0.0000
     33 H          -0.3783   -6.0702    2.5167 H       1  LIG1        0.0000
     34 H          -0.4563   -6.4867    0.9397 H       1  LIG1        0.0000
     35 H           1.2468   -4.7460    0.3935 H       1  LIG1        0.0000
     36 H           1.3263   -4.3362    1.9722 H       1  LIG1        0.0000
     37 H           2.0522   -2.5157    0.6399 H       1  LIG1        0.0000
     38 H           0.6318   -2.5283   -0.1657 H       1  LIG1        0.0000
     39 H           2.5718   -0.6480    0.5698 H       1  LIG1        0.0000
     40 H           2.6004   -0.1509    2.1250 H       1  LIG1        0.0000
     41 H           2.9471    1.8871    1.4660 H       1  LIG1        0.0000
     42 H           2.9145    1.3907   -0.0893 H       1  LIG1        0.0000
     43 H           1.7373    7.3279    1.0164 H       1  LIG1        0.0000
     44 H           0.3139    7.3154    0.2161 H       1  LIG1        0.0000
     45 H           2.8902    7.6677   -1.0392 H       1  LIG1        0.0000
     46 H           1.4668    7.6552   -1.8396 H       1  LIG1        0.0000
     47 H           0.7353    1.3613   -1.3170 H       1  LIG1        0.0000
     48 H          -0.6214    1.8438   -0.5467 H       1  LIG1        0.0000
     49 H          -0.9728   -0.1934    0.1157 H       1  LIG1        0.0000
     50 H           0.3791   -0.6774   -0.6620 H       1  LIG1        0.0000
     51 H          -1.4703   -1.8908    1.0291 H       1  LIG1        0.0000
     52 H          -1.4043   -1.4718    2.6060 H       1  LIG1        0.0000
     53 H          -0.7996   -3.6895    3.1823 H       1  LIG1        0.0000
     54 H          -2.2134   -3.7009    2.3653 H       1  LIG1        0.0000
@<TRIPOS>UNITY_ATOM_ATTR
17 1
charge 1
@<TRIPOS>BOND
     1     1     2    1
     2     2     3    1
     3     3     4    1
     4     4     5    1
     5     5     6    1
     6     6     7    1
     7     7     8    1
     8     8     9    1
     9     9    10    1
    10    10    11    1
    11    11    12    1
    12    12    13    2
    13    13    14    1
    14    14    15    1
    15    15    16    1
    16    16    17    1
    17    14    18    2
    18    18    11    1
    19    10    19    1
    20    19    20    1
    21    20     7    1
    22     6    21    1
    23    21    22    1
    24    22     3    1
    25     3    23    1
    26     6    24    1
    27     7    25    1
    28    10    26    1
    29    17    27    1
    30    17    28    1
    31    17    29    1
    32     1    30    1
    33     1    31    1
    34     1    32    1
    35     2    33    1
    36     2    34    1
    37     4    35    1
    38     4    36    1
    39     5    37    1
    40     5    38    1
    41     8    39    1
    42     8    40    1
    43     9    41    1
    44     9    42    1
    45    15    43    1
    46    15    44    1
    47    16    45    1
    48    16    46    1
    49    19    47    1
    50    19    48    1
    51    20    49    1
    52    20    50    1
    53    21    51    1
    54    21    52    1
    55    22    53    1
    56    22    54    1
