@<TRIPOS>MOLECULE
*****
 54 56 0 0 0
SMALL
USER_CHARGES

@<TRIPOS>ATOM
      1 C1         -1.0694   -6.4271    2.0723 C.3     1  LIG1        0.0000
      2 C2         -0.2275   -5.6658    3.0833 C.3     1  LIG1        0.0000
      3 C3          0.0466   -4.2661    2.5621 C.3     1  LIG1        0.0000
      4 C4          0.8891   -3.4880    3.5617 C.3     1  LIG1        0.0000
      5 C5          1.1344   -2.0579    3.1022 C.3     1  LIG1        0.0000
      6 C6          0.4699   -1.7761    1.7628 C.3     1  LIG1        0.0000
      7 C7          0.6810   -0.3269    1.3592 C.3     1  LIG1        0.0000
      8 C8          2.1659   -0.0201    1.2339 C.3     1  LIG1        0.0000
      9 C9          2.4075    1.4100    0.7724 C.3     1  LIG1        0.0000
     10 C10         1.1030    2.1632    0.5593 C.3     1  LIG1        0.0000
     11 N11         1.3736    3.5179    0.0592 N.pl3   1  LIG1        0.0000
     12 N12         0.4648    4.4186   -0.2246 N.2     1  LIG1        0.0000
     13 N13         1.0201    5.4766   -0.6277 N.2     1  LIG1        0.0000
     14 C14         2.3621    5.2455   -0.6046 C.2     1  LIG1        0.0000
     15 C15         3.4447    6.2340   -1.0081 C.3     1  LIG1        0.0000
     16 C16         3.7453    6.0792   -2.4900 C.3     1  LIG1        0.0000
     17 N17         4.7919    7.0349   -2.8802 N.4     1  LIG1        1.0000
     18 N18         2.5590    4.0222   -0.1762 N.2     1  LIG1        0.0000
     19 C19         0.2593    1.3826   -0.4378 C.3     1  LIG1        0.0000
     20 C20         0.0121   -0.0477    0.0227 C.3     1  LIG1        0.0000
     21 C21        -1.0149   -2.0804    1.8829 C.3     1  LIG1        0.0000
     22 C22        -1.2565   -3.5106    2.3466 C.3     1  LIG1        0.0000
     23 H           0.5390   -4.3283    1.6939 H       1  LIG1        0.0000
     24 H           0.8709   -2.3716    1.0667 H       1  LIG1        0.0000
     25 H           0.2813    0.2686    2.0561 H       1  LIG1        0.0000
     26 H           0.6126    2.2248    1.4286 H       1  LIG1        0.0000
     27 H           4.9896    6.9331   -3.8551 H       1  LIG1        0.0000
     28 H           4.4766    7.9666   -2.6995 H       1  LIG1        0.0000
     29 H           5.6213    6.8552   -2.3512 H       1  LIG1        0.0000
     30 H          -1.2499   -7.3488    2.4156 H       1  LIG1        0.0000
     31 H          -1.9359   -5.9480    1.9320 H       1  LIG1        0.0000
     32 H          -0.5762   -6.4853    1.2043 H       1  LIG1        0.0000
     33 H          -0.7206   -5.6076    3.9513 H       1  LIG1        0.0000
     34 H           0.6390   -6.1449    3.2237 H       1  LIG1        0.0000
     35 H           1.7700   -3.9486    3.6703 H       1  LIG1        0.0000
     36 H           0.4125   -3.4683    4.4406 H       1  LIG1        0.0000
     37 H           0.7641   -1.4295    3.7864 H       1  LIG1        0.0000
     38 H           2.1194   -1.9105    3.0128 H       1  LIG1        0.0000
     39 H           2.5718   -0.6480    0.5698 H       1  LIG1        0.0000
     40 H           2.6004   -0.1509    2.1250 H       1  LIG1        0.0000
     41 H           2.9471    1.8871    1.4660 H       1  LIG1        0.0000
     42 H           2.9145    1.3907   -0.0893 H       1  LIG1        0.0000
     43 H           4.2741    6.0544   -0.4792 H       1  LIG1        0.0000
     44 H           3.1294    7.1657   -0.8275 H       1  LIG1        0.0000
     45 H           4.0605    5.1476   -2.6707 H       1  LIG1        0.0000
     46 H           2.9159    6.2589   -3.0190 H       1  LIG1        0.0000
     47 H           0.7353    1.3613   -1.3170 H       1  LIG1        0.0000
     48 H          -0.6214    1.8438   -0.5467 H       1  LIG1        0.0000
     49 H          -0.9728   -0.1934    0.1157 H       1  LIG1        0.0000
     50 H           0.3791   -0.6774   -0.6620 H       1  LIG1        0.0000
     51 H          -1.4462   -1.9512    0.9900 H       1  LIG1        0.0000
     52 H          -1.4230   -1.4511    2.5444 H       1  LIG1        0.0000
     53 H          -1.7640   -3.4896    3.2080 H       1  LIG1        0.0000
     54 H          -1.7961   -3.9883    1.6533 H       1  LIG1        0.0000
@<TRIPOS>UNITY_ATOM_ATTR
17 1
charge 1
@<TRIPOS>BOND
     1     1     2    1
     2     2     3    1
     3     3     4    1
     4     4     5    1
     5     5     6    1
     6     6     7    1
     7     7     8    1
     8     8     9    1
     9     9    10    1
    10    10    11    1
    11    11    12    1
    12    12    13    2
    13    13    14    1
    14    14    15    1
    15    15    16    1
    16    16    17    1
    17    14    18    2
    18    18    11    1
    19    10    19    1
    20    19    20    1
    21    20     7    1
    22     6    21    1
    23    21    22    1
    24    22     3    1
    25     3    23    1
    26     6    24    1
    27     7    25    1
    28    10    26    1
    29    17    27    1
    30    17    28    1
    31    17    29    1
    32     1    30    1
    33     1    31    1
    34     1    32    1
    35     2    33    1
    36     2    34    1
    37     4    35    1
    38     4    36    1
    39     5    37    1
    40     5    38    1
    41     8    39    1
    42     8    40    1
    43     9    41    1
    44     9    42    1
    45    15    43    1
    46    15    44    1
    47    16    45    1
    48    16    46    1
    49    19    47    1
    50    19    48    1
    51    20    49    1
    52    20    50    1
    53    21    51    1
    54    21    52    1
    55    22    53    1
    56    22    54    1
