@<TRIPOS>MOLECULE
*****
 54 56 0 0 0
SMALL
USER_CHARGES

@<TRIPOS>ATOM
      1 C1          4.4071   -0.0031    7.4256 C.3     1  LIG1        0.0000
      2 C2          5.1181   -0.4883    6.1728 C.3     1  LIG1        0.0000
      3 C3          4.3803    0.0157    4.9446 C.3     1  LIG1        0.0000
      4 C4          5.0820   -0.4632    3.6841 C.3     1  LIG1        0.0000
      5 C5          4.3431    0.0301    2.4503 C.3     1  LIG1        0.0000
      6 C6          2.9126   -0.4848    2.4622 C.3     1  LIG1        0.0000
      7 C7          2.1732    0.0184    1.2333 C.3     1  LIG1        0.0000
      8 C8          2.1537    1.5386    1.2266 C.3     1  LIG1        0.0000
      9 C9          1.4132    2.0574    0.0045 C.3     1  LIG1        0.0000
     10 C10        -0.0087    1.5199    0.0015 C.3     1  LIG1        0.0000
     11 N11        -0.7294    2.0126   -1.1802 N.pl3   1  LIG1        0.0000
     12 N12        -0.9464    3.2729   -1.4670 N.2     1  LIG1        0.0000
     13 N13        -1.5894    3.3627   -2.5481 N.2     1  LIG1        0.0000
     14 C14        -1.8008    2.0894   -2.9827 C.2     1  LIG1        0.0000
     15 C15        -2.5389    1.6906   -4.2508 C.3     1  LIG1        0.0000
     16 C16        -3.0141    2.9398   -4.9746 C.3     1  LIG1        0.0000
     17 N17        -3.7277    2.5542   -6.2006 N.4     1  LIG1        1.0000
     18 N18        -1.2597    1.2668   -2.1170 N.2     1  LIG1        0.0000
     19 C19         0.0010   -0.0001    0.0092 C.3     1  LIG1        0.0000
     20 C20         0.7473   -0.5086    1.2320 C.3     1  LIG1        0.0000
     21 C21         2.2088   -0.0009    3.7201 C.3     1  LIG1        0.0000
     22 C22         2.9482   -0.4947    4.9529 C.3     1  LIG1        0.0000
     23 H           4.3717    1.0156    4.9549 H       1  LIG1        0.0000
     24 H           2.9224   -1.4847    2.4542 H       1  LIG1        0.0000
     25 H           2.6431   -0.3065    0.4125 H       1  LIG1        0.0000
     26 H          -0.4776    1.8435    0.8233 H       1  LIG1        0.0000
     27 H          -4.0404    3.3761   -6.6768 H       1  LIG1        0.0000
     28 H          -3.1123    2.0377   -6.7960 H       1  LIG1        0.0000
     29 H          -4.5159    1.9865   -5.9629 H       1  LIG1        0.0000
     30 H           4.8928   -0.3349    8.2343 H       1  LIG1        0.0000
     31 H           4.3907    0.9968    7.4335 H       1  LIG1        0.0000
     32 H           3.4699   -0.3518    7.4332 H       1  LIG1        0.0000
     33 H           6.0552   -0.1396    6.1652 H       1  LIG1        0.0000
     34 H           5.1344   -1.4882    6.1649 H       1  LIG1        0.0000
     35 H           5.1038   -1.4629    3.6781 H       1  LIG1        0.0000
     36 H           6.0172   -0.1093    3.6723 H       1  LIG1        0.0000
     37 H           4.3353    1.0301    2.4463 H       1  LIG1        0.0000
     38 H           4.8083   -0.3029    1.6301 H       1  LIG1        0.0000
     39 H           3.0936    1.8795    1.2110 H       1  LIG1        0.0000
     40 H           1.6943    1.8652    2.0527 H       1  LIG1        0.0000
     41 H           1.3908    3.0568    0.0286 H       1  LIG1        0.0000
     42 H           1.8849    1.7544   -0.8236 H       1  LIG1        0.0000
     43 H          -3.3271    1.1228   -4.0131 H       1  LIG1        0.0000
     44 H          -1.9235    1.1741   -4.8462 H       1  LIG1        0.0000
     45 H          -3.6295    3.4563   -4.3792 H       1  LIG1        0.0000
     46 H          -2.2260    3.5075   -5.2122 H       1  LIG1        0.0000
     47 H           0.4545   -0.3327   -0.8177 H       1  LIG1        0.0000
     48 H          -0.9402   -0.3373    0.0316 H       1  LIG1        0.0000
     49 H           0.2789   -0.1962    2.0584 H       1  LIG1        0.0000
     50 H           0.7646   -1.5083    1.2164 H       1  LIG1        0.0000
     51 H           1.2730   -0.3532    3.7321 H       1  LIG1        0.0000
     52 H           2.1887    0.9989    3.7244 H       1  LIG1        0.0000
     53 H           2.4831   -0.1610    5.7729 H       1  LIG1        0.0000
     54 H           2.9537   -1.4947    4.9565 H       1  LIG1        0.0000
@<TRIPOS>UNITY_ATOM_ATTR
17 1
charge 1
@<TRIPOS>BOND
     1     1     2    1
     2     2     3    1
     3     3     4    1
     4     4     5    1
     5     5     6    1
     6     6     7    1
     7     7     8    1
     8     8     9    1
     9     9    10    1
    10    10    11    1
    11    11    12    1
    12    12    13    2
    13    13    14    1
    14    14    15    1
    15    15    16    1
    16    16    17    1
    17    14    18    2
    18    18    11    1
    19    10    19    1
    20    19    20    1
    21    20     7    1
    22     6    21    1
    23    21    22    1
    24    22     3    1
    25     3    23    1
    26     6    24    1
    27     7    25    1
    28    10    26    1
    29    17    27    1
    30    17    28    1
    31    17    29    1
    32     1    30    1
    33     1    31    1
    34     1    32    1
    35     2    33    1
    36     2    34    1
    37     4    35    1
    38     4    36    1
    39     5    37    1
    40     5    38    1
    41     8    39    1
    42     8    40    1
    43     9    41    1
    44     9    42    1
    45    15    43    1
    46    15    44    1
    47    16    45    1
    48    16    46    1
    49    19    47    1
    50    19    48    1
    51    20    49    1
    52    20    50    1
    53    21    51    1
    54    21    52    1
    55    22    53    1
    56    22    54    1
