@<TRIPOS>MOLECULE
*****
 54 56 0 0 0
SMALL
USER_CHARGES

@<TRIPOS>ATOM
      1 C1          1.8981   -6.7752    1.7918 C.3     1  LIG1        0.0000
      2 C2          1.3164   -5.8650    2.8611 C.3     1  LIG1        0.0000
      3 C3          1.5172   -4.4143    2.4555 C.3     1  LIG1        0.0000
      4 C4          0.9391   -3.4933    3.5176 C.3     1  LIG1        0.0000
      5 C5          1.1382   -2.0445    3.1020 C.3     1  LIG1        0.0000
      6 C6          0.4698   -1.7769    1.7631 C.3     1  LIG1        0.0000
      7 C7          0.6810   -0.3269    1.3592 C.3     1  LIG1        0.0000
      8 C8          2.1659   -0.0201    1.2339 C.3     1  LIG1        0.0000
      9 C9          2.4075    1.4100    0.7724 C.3     1  LIG1        0.0000
     10 C10         1.1030    2.1632    0.5593 C.3     1  LIG1        0.0000
     11 N11         1.3736    3.5179    0.0592 N.pl3   1  LIG1        0.0000
     12 N12         1.9990    3.8052   -1.0561 N.2     1  LIG1        0.0000
     13 N13         2.0670    5.0562   -1.2002 N.2     1  LIG1        0.0000
     14 C14         1.4529    5.6072   -0.1167 C.2     1  LIG1        0.0000
     15 C15         1.2872    7.0941    0.1546 C.3     1  LIG1        0.0000
     16 C16         0.5471    7.2903    1.4677 C.3     1  LIG1        0.0000
     17 N17         0.3870    8.7278    1.7299 N.4     1  LIG1        1.0000
     18 N18         1.0311    4.6336    0.6533 N.2     1  LIG1        0.0000
     19 C19         0.2593    1.3826   -0.4378 C.3     1  LIG1        0.0000
     20 C20         0.0121   -0.0477    0.0227 C.3     1  LIG1        0.0000
     21 C21         1.0559   -2.7014    0.7081 C.3     1  LIG1        0.0000
     22 C22         0.8552   -4.1529    1.1124 C.3     1  LIG1        0.0000
     23 H           2.4975   -4.2354    2.3722 H       1  LIG1        0.0000
     24 H          -0.5109   -1.9543    1.8455 H       1  LIG1        0.0000
     25 H           0.2813    0.2686    2.0561 H       1  LIG1        0.0000
     26 H           0.6126    2.2248    1.4286 H       1  LIG1        0.0000
     27 H          -0.0999    8.8568    2.5938 H       1  LIG1        0.0000
     28 H           1.2877    9.1585    1.7874 H       1  LIG1        0.0000
     29 H          -0.1357    9.1460    0.9870 H       1  LIG1        0.0000
     30 H           1.7660   -7.7298    2.0587 H       1  LIG1        0.0000
     31 H           1.4355   -6.6053    0.9216 H       1  LIG1        0.0000
     32 H           2.8756   -6.5894    1.6915 H       1  LIG1        0.0000
     33 H           0.3389   -6.0508    2.9613 H       1  LIG1        0.0000
     34 H           1.7790   -6.0349    3.7312 H       1  LIG1        0.0000
     35 H           1.4039   -3.6564    4.3879 H       1  LIG1        0.0000
     36 H          -0.0381   -3.6780    3.6219 H       1  LIG1        0.0000
     37 H           0.7376   -1.4454    3.7952 H       1  LIG1        0.0000
     38 H           2.1173   -1.8563    3.0243 H       1  LIG1        0.0000
     39 H           2.5718   -0.6480    0.5698 H       1  LIG1        0.0000
     40 H           2.6004   -0.1509    2.1250 H       1  LIG1        0.0000
     41 H           2.9471    1.8871    1.4660 H       1  LIG1        0.0000
     42 H           2.9145    1.3907   -0.0893 H       1  LIG1        0.0000
     43 H           0.7645    7.5123   -0.5883 H       1  LIG1        0.0000
     44 H           2.1879    7.5249    0.2120 H       1  LIG1        0.0000
     45 H          -0.3535    6.8596    1.4102 H       1  LIG1        0.0000
     46 H           1.0698    6.8721    2.2106 H       1  LIG1        0.0000
     47 H           0.7353    1.3613   -1.3170 H       1  LIG1        0.0000
     48 H          -0.6214    1.8438   -0.5467 H       1  LIG1        0.0000
     49 H          -0.9728   -0.1934    0.1157 H       1  LIG1        0.0000
     50 H           0.3791   -0.6774   -0.6620 H       1  LIG1        0.0000
     51 H           2.0342   -2.5169    0.6140 H       1  LIG1        0.0000
     52 H           0.5999   -2.5359   -0.1663 H       1  LIG1        0.0000
     53 H          -0.1237   -4.3448    1.1826 H       1  LIG1        0.0000
     54 H           1.2629   -4.7489    0.4205 H       1  LIG1        0.0000
@<TRIPOS>UNITY_ATOM_ATTR
17 1
charge 1
@<TRIPOS>BOND
     1     1     2    1
     2     2     3    1
     3     3     4    1
     4     4     5    1
     5     5     6    1
     6     6     7    1
     7     7     8    1
     8     8     9    1
     9     9    10    1
    10    10    11    1
    11    11    12    1
    12    12    13    2
    13    13    14    1
    14    14    15    1
    15    15    16    1
    16    16    17    1
    17    14    18    2
    18    18    11    1
    19    10    19    1
    20    19    20    1
    21    20     7    1
    22     6    21    1
    23    21    22    1
    24    22     3    1
    25     3    23    1
    26     6    24    1
    27     7    25    1
    28    10    26    1
    29    17    27    1
    30    17    28    1
    31    17    29    1
    32     1    30    1
    33     1    31    1
    34     1    32    1
    35     2    33    1
    36     2    34    1
    37     4    35    1
    38     4    36    1
    39     5    37    1
    40     5    38    1
    41     8    39    1
    42     8    40    1
    43     9    41    1
    44     9    42    1
    45    15    43    1
    46    15    44    1
    47    16    45    1
    48    16    46    1
    49    19    47    1
    50    19    48    1
    51    20    49    1
    52    20    50    1
    53    21    51    1
    54    21    52    1
    55    22    53    1
    56    22    54    1
