@<TRIPOS>MOLECULE
*****
 54 56 0 0 0
SMALL
USER_CHARGES

@<TRIPOS>ATOM
      1 C1          3.0291   -1.9952    7.4351 C.3     1  LIG1        0.0000
      2 C2          3.7173   -2.5175    6.1845 C.3     1  LIG1        0.0000
      3 C3          2.9861   -2.0079    4.9536 C.3     1  LIG1        0.0000
      4 C4          3.6653   -2.5238    3.6954 C.3     1  LIG1        0.0000
      5 C5          2.9322   -2.0049    2.4688 C.3     1  LIG1        0.0000
      6 C6          2.9126   -0.4848    2.4622 C.3     1  LIG1        0.0000
      7 C7          2.1732    0.0184    1.2333 C.3     1  LIG1        0.0000
      8 C8          2.1537    1.5386    1.2266 C.3     1  LIG1        0.0000
      9 C9          1.4132    2.0574    0.0045 C.3     1  LIG1        0.0000
     10 C10        -0.0087    1.5199    0.0015 C.3     1  LIG1        0.0000
     11 N11        -0.7294    2.0126   -1.1802 N.pl3   1  LIG1        0.0000
     12 N12        -0.9464    3.2729   -1.4670 N.2     1  LIG1        0.0000
     13 N13        -1.5894    3.3627   -2.5481 N.2     1  LIG1        0.0000
     14 C14        -1.8008    2.0894   -2.9827 C.2     1  LIG1        0.0000
     15 C15        -2.5389    1.6906   -4.2508 C.3     1  LIG1        0.0000
     16 C16        -2.5556    0.1755   -4.3720 C.3     1  LIG1        0.0000
     17 N17        -3.2692   -0.2101   -5.5980 N.4     1  LIG1        1.0000
     18 N18        -1.2597    1.2668   -2.1170 N.2     1  LIG1        0.0000
     19 C19         0.0010   -0.0001    0.0092 C.3     1  LIG1        0.0000
     20 C20         0.7473   -0.5086    1.2320 C.3     1  LIG1        0.0000
     21 C21         2.2301    0.0206    3.7231 C.3     1  LIG1        0.0000
     22 C22         2.9609   -0.4880    4.9552 C.3     1  LIG1        0.0000
     23 H           2.0453   -2.3461    4.9742 H       1  LIG1        0.0000
     24 H           3.8530   -0.1453    2.4403 H       1  LIG1        0.0000
     25 H           2.6431   -0.3065    0.4125 H       1  LIG1        0.0000
     26 H          -0.4776    1.8435    0.8233 H       1  LIG1        0.0000
     27 H          -3.2802   -1.2069   -5.6778 H       1  LIG1        0.0000
     28 H          -4.2082    0.1315   -5.5586 H       1  LIG1        0.0000
     29 H          -2.8046    0.1827   -6.3917 H       1  LIG1        0.0000
     30 H           3.5102   -2.3305    8.2450 H       1  LIG1        0.0000
     31 H           3.0421   -0.9953    7.4298 H       1  LIG1        0.0000
     32 H           2.0821   -2.3161    7.4531 H       1  LIG1        0.0000
     33 H           4.6642   -2.1966    6.1664 H       1  LIG1        0.0000
     34 H           3.7042   -3.5174    6.1898 H       1  LIG1        0.0000
     35 H           3.6486   -3.5236    3.6946 H       1  LIG1        0.0000
     36 H           4.6134   -2.2062    3.6752 H       1  LIG1        0.0000
     37 H           3.3965   -2.3315    1.6455 H       1  LIG1        0.0000
     38 H           1.9922   -2.3459    2.4788 H       1  LIG1        0.0000
     39 H           3.0936    1.8795    1.2110 H       1  LIG1        0.0000
     40 H           1.6943    1.8652    2.0527 H       1  LIG1        0.0000
     41 H           1.3908    3.0568    0.0286 H       1  LIG1        0.0000
     42 H           1.8849    1.7544   -0.8236 H       1  LIG1        0.0000
     43 H          -2.0744    2.0834   -5.0444 H       1  LIG1        0.0000
     44 H          -3.4779    2.0322   -4.2113 H       1  LIG1        0.0000
     45 H          -1.6166   -0.1661   -4.4115 H       1  LIG1        0.0000
     46 H          -3.0202   -0.2173   -3.5784 H       1  LIG1        0.0000
     47 H           0.4545   -0.3327   -0.8177 H       1  LIG1        0.0000
     48 H          -0.9402   -0.3373    0.0316 H       1  LIG1        0.0000
     49 H           0.2789   -0.1962    2.0584 H       1  LIG1        0.0000
     50 H           0.7646   -1.5083    1.2164 H       1  LIG1        0.0000
     51 H           1.2853   -0.3064    3.7410 H       1  LIG1        0.0000
     52 H           2.2369    1.0206    3.7243 H       1  LIG1        0.0000
     53 H           3.8988   -0.1412    4.9507 H       1  LIG1        0.0000
     54 H           2.4901   -0.1654    5.7763 H       1  LIG1        0.0000
@<TRIPOS>UNITY_ATOM_ATTR
17 1
charge 1
@<TRIPOS>BOND
     1     1     2    1
     2     2     3    1
     3     3     4    1
     4     4     5    1
     5     5     6    1
     6     6     7    1
     7     7     8    1
     8     8     9    1
     9     9    10    1
    10    10    11    1
    11    11    12    1
    12    12    13    2
    13    13    14    1
    14    14    15    1
    15    15    16    1
    16    16    17    1
    17    14    18    2
    18    18    11    1
    19    10    19    1
    20    19    20    1
    21    20     7    1
    22     6    21    1
    23    21    22    1
    24    22     3    1
    25     3    23    1
    26     6    24    1
    27     7    25    1
    28    10    26    1
    29    17    27    1
    30    17    28    1
    31    17    29    1
    32     1    30    1
    33     1    31    1
    34     1    32    1
    35     2    33    1
    36     2    34    1
    37     4    35    1
    38     4    36    1
    39     5    37    1
    40     5    38    1
    41     8    39    1
    42     8    40    1
    43     9    41    1
    44     9    42    1
    45    15    43    1
    46    15    44    1
    47    16    45    1
    48    16    46    1
    49    19    47    1
    50    19    48    1
    51    20    49    1
    52    20    50    1
    53    21    51    1
    54    21    52    1
    55    22    53    1
    56    22    54    1
