@<TRIPOS>MOLECULE
*****
 54 56 0 0 0
SMALL
USER_CHARGES

@<TRIPOS>ATOM
      1 C1          0.8671   -6.6175    3.6773 C.3     1  LIG1        0.0000
      2 C2          0.1112   -6.1189    2.4565 C.3     1  LIG1        0.0000
      3 C3          0.0979   -4.5993    2.4547 C.3     1  LIG1        0.0000
      4 C4         -0.6558   -4.0880    1.2377 C.3     1  LIG1        0.0000
      5 C5         -0.6595   -2.5677    1.2397 C.3     1  LIG1        0.0000
      6 C6          0.7627   -2.0306    1.2331 C.3     1  LIG1        0.0000
      7 C7          0.7427   -0.5109    1.2396 C.3     1  LIG1        0.0000
      8 C8          2.1665    0.0211    1.2329 C.3     1  LIG1        0.0000
      9 C9          2.1566    1.5412    1.2289 C.3     1  LIG1        0.0000
     10 C10         1.4121    2.0555    0.0075 C.3     1  LIG1        0.0000
     11 N11         1.3968    3.5246    0.0077 N.pl3   1  LIG1        0.0000
     12 N12         0.8741    4.2789    0.9433 N.2     1  LIG1        0.0000
     13 N13         1.0265    5.4957    0.6491 N.2     1  LIG1        0.0000
     14 C14         1.6825    5.5288   -0.5440 C.2     1  LIG1        0.0000
     15 C15         2.0889    6.7814   -1.3041 C.3     1  LIG1        0.0000
     16 C16         1.6493    8.0111   -0.5263 C.3     1  LIG1        0.0000
     17 N17         2.0421    9.2221   -1.2612 N.4     1  LIG1        1.0000
     18 N18         1.9011    4.2935   -0.9248 N.2     1  LIG1        0.0000
     19 C19        -0.0105    1.5199    0.0052 C.3     1  LIG1        0.0000
     20 C20         0.0041   -0.0002    0.0131 C.3     1  LIG1        0.0000
     21 C21         1.5068   -2.5462    2.4545 C.3     1  LIG1        0.0000
     22 C22         1.5214   -4.0663    2.4571 C.3     1  LIG1        0.0000
     23 H          -0.3676   -4.2799    3.2801 H       1  LIG1        0.0000
     24 H           1.2289   -2.3484    0.4075 H       1  LIG1        0.0000
     25 H           0.2748   -0.1907    2.0633 H       1  LIG1        0.0000
     26 H           1.8804    1.7360   -0.8163 H       1  LIG1        0.0000
     27 H           1.7529   10.0311   -0.7494 H       1  LIG1        0.0000
     28 H           3.0357    9.2362   -1.3734 H       1  LIG1        0.0000
     29 H           1.6050    9.2227   -2.1605 H       1  LIG1        0.0000
     30 H           0.8759   -7.6175    3.6784 H       1  LIG1        0.0000
     31 H           1.8065   -6.2760    3.6501 H       1  LIG1        0.0000
     32 H           0.4161   -6.2872    4.5064 H       1  LIG1        0.0000
     33 H           0.5622   -6.4492    1.6273 H       1  LIG1        0.0000
     34 H          -0.8283   -6.4605    2.4836 H       1  LIG1        0.0000
     35 H          -1.5977   -4.4228    1.2649 H       1  LIG1        0.0000
     36 H          -0.2085   -4.4183    0.4065 H       1  LIG1        0.0000
     37 H          -1.1390   -2.2389    0.4261 H       1  LIG1        0.0000
     38 H          -1.1306   -2.2411    2.0591 H       1  LIG1        0.0000
     39 H           2.6390   -0.3087    0.4156 H       1  LIG1        0.0000
     40 H           2.6449   -0.3043    2.0486 H       1  LIG1        0.0000
     41 H           1.7023    1.8712    2.0564 H       1  LIG1        0.0000
     42 H           3.0979    1.8780    1.2086 H       1  LIG1        0.0000
     43 H           1.6517    6.7820   -2.2035 H       1  LIG1        0.0000
     44 H           3.0825    6.7956   -1.4164 H       1  LIG1        0.0000
     45 H           0.6557    7.9969   -0.4140 H       1  LIG1        0.0000
     46 H           2.0864    8.0104    0.3731 H       1  LIG1        0.0000
     47 H          -0.4839    1.8420   -0.8146 H       1  LIG1        0.0000
     48 H          -0.4896    1.8503    0.8184 H       1  LIG1        0.0000
     49 H          -0.9364   -0.3396    0.0286 H       1  LIG1        0.0000
     50 H           0.4642   -0.3306   -0.8111 H       1  LIG1        0.0000
     51 H           1.0504   -2.2188    3.2819 H       1  LIG1        0.0000
     52 H           2.4472   -2.2069    2.4360 H       1  LIG1        0.0000
     53 H           1.9993   -4.3943    1.6423 H       1  LIG1        0.0000
     54 H           1.9955   -4.3916    3.2753 H       1  LIG1        0.0000
@<TRIPOS>UNITY_ATOM_ATTR
17 1
charge 1
@<TRIPOS>BOND
     1     1     2    1
     2     2     3    1
     3     3     4    1
     4     4     5    1
     5     5     6    1
     6     6     7    1
     7     7     8    1
     8     8     9    1
     9     9    10    1
    10    10    11    1
    11    11    12    1
    12    12    13    2
    13    13    14    1
    14    14    15    1
    15    15    16    1
    16    16    17    1
    17    14    18    2
    18    18    11    1
    19    10    19    1
    20    19    20    1
    21    20     7    1
    22     6    21    1
    23    21    22    1
    24    22     3    1
    25     3    23    1
    26     6    24    1
    27     7    25    1
    28    10    26    1
    29    17    27    1
    30    17    28    1
    31    17    29    1
    32     1    30    1
    33     1    31    1
    34     1    32    1
    35     2    33    1
    36     2    34    1
    37     4    35    1
    38     4    36    1
    39     5    37    1
    40     5    38    1
    41     8    39    1
    42     8    40    1
    43     9    41    1
    44     9    42    1
    45    15    43    1
    46    15    44    1
    47    16    45    1
    48    16    46    1
    49    19    47    1
    50    19    48    1
    51    20    49    1
    52    20    50    1
    53    21    51    1
    54    21    52    1
    55    22    53    1
    56    22    54    1
