@<TRIPOS>MOLECULE
*****
 54 56 0 0 0
SMALL
USER_CHARGES

@<TRIPOS>ATOM
      1 C1          2.9605   -6.5878    2.4591 C.3     1  LIG1        0.0000
      2 C2          2.2425   -6.0856    1.2170 C.3     1  LIG1        0.0000
      3 C3          2.2236   -4.5669    1.2224 C.3     1  LIG1        0.0000
      4 C4          1.5077   -4.0519   -0.0157 C.3     1  LIG1        0.0000
      5 C5          1.4769   -2.5317   -0.0120 C.3     1  LIG1        0.0000
      6 C6          0.7627   -2.0307    1.2331 C.3     1  LIG1        0.0000
      7 C7          0.7427   -0.5109    1.2396 C.3     1  LIG1        0.0000
      8 C8          2.1665    0.0211    1.2329 C.3     1  LIG1        0.0000
      9 C9          2.1566    1.5412    1.2289 C.3     1  LIG1        0.0000
     10 C10         1.4121    2.0555    0.0075 C.3     1  LIG1        0.0000
     11 N11         1.3968    3.5246    0.0077 N.pl3   1  LIG1        0.0000
     12 N12         0.8361    4.2787   -0.9059 N.2     1  LIG1        0.0000
     13 N13         0.9959    5.4955   -0.6156 N.2     1  LIG1        0.0000
     14 C14         1.7006    5.5289    0.5493 C.2     1  LIG1        0.0000
     15 C15         2.1364    6.7816    1.2928 C.3     1  LIG1        0.0000
     16 C16         2.8997    6.3870    2.5466 C.3     1  LIG1        0.0000
     17 N17         3.3210    7.5981    3.2653 N.4     1  LIG1        1.0000
     18 N18         1.9403    4.2937    0.9177 N.2     1  LIG1        0.0000
     19 C19        -0.0105    1.5199    0.0052 C.3     1  LIG1        0.0000
     20 C20         0.0041   -0.0002    0.0131 C.3     1  LIG1        0.0000
     21 C21         1.4822   -2.5409    2.4716 C.3     1  LIG1        0.0000
     22 C22         1.5123   -4.0606    2.4671 C.3     1  LIG1        0.0000
     23 H           3.1643   -4.2276    1.2218 H       1  LIG1        0.0000
     24 H          -0.1770   -2.3725    1.2338 H       1  LIG1        0.0000
     25 H           0.2748   -0.1907    2.0633 H       1  LIG1        0.0000
     26 H           1.8804    1.7360   -0.8163 H       1  LIG1        0.0000
     27 H           3.8232    7.3385    4.0902 H       1  LIG1        0.0000
     28 H           3.9116    8.1478    2.6746 H       1  LIG1        0.0000
     29 H           2.5147    8.1319    3.5202 H       1  LIG1        0.0000
     30 H           2.9729   -7.5878    2.4555 H       1  LIG1        0.0000
     31 H           3.8991   -6.2428    2.4639 H       1  LIG1        0.0000
     32 H           2.4819   -6.2633    3.2749 H       1  LIG1        0.0000
     33 H           2.7212   -6.4102    0.4012 H       1  LIG1        0.0000
     34 H           1.3039   -6.4307    1.2122 H       1  LIG1        0.0000
     35 H           0.5707   -4.4010   -0.0243 H       1  LIG1        0.0000
     36 H           1.9896   -4.3703   -0.8320 H       1  LIG1        0.0000
     37 H           2.4134   -2.1812   -0.0205 H       1  LIG1        0.0000
     38 H           0.9925   -2.2081   -0.8248 H       1  LIG1        0.0000
     39 H           2.6390   -0.3087    0.4156 H       1  LIG1        0.0000
     40 H           2.6449   -0.3043    2.0486 H       1  LIG1        0.0000
     41 H           1.7023    1.8712    2.0564 H       1  LIG1        0.0000
     42 H           3.0979    1.8780    1.2086 H       1  LIG1        0.0000
     43 H           1.3301    7.3154    1.5476 H       1  LIG1        0.0000
     44 H           2.7270    7.3313    0.7021 H       1  LIG1        0.0000
     45 H           2.3091    5.8373    3.1373 H       1  LIG1        0.0000
     46 H           3.7060    5.8532    2.2918 H       1  LIG1        0.0000
     47 H          -0.4839    1.8420   -0.8146 H       1  LIG1        0.0000
     48 H          -0.4896    1.8503    0.8184 H       1  LIG1        0.0000
     49 H          -0.9364   -0.3396    0.0286 H       1  LIG1        0.0000
     50 H           0.4642   -0.3306   -0.8111 H       1  LIG1        0.0000
     51 H           1.0018   -2.2218    3.2886 H       1  LIG1        0.0000
     52 H           2.4190   -2.1912    2.4779 H       1  LIG1        0.0000
     53 H           1.9975   -4.3839    3.2795 H       1  LIG1        0.0000
     54 H           0.5753   -4.4098    2.4773 H       1  LIG1        0.0000
@<TRIPOS>UNITY_ATOM_ATTR
17 1
charge 1
@<TRIPOS>BOND
     1     1     2    1
     2     2     3    1
     3     3     4    1
     4     4     5    1
     5     5     6    1
     6     6     7    1
     7     7     8    1
     8     8     9    1
     9     9    10    1
    10    10    11    1
    11    11    12    1
    12    12    13    2
    13    13    14    1
    14    14    15    1
    15    15    16    1
    16    16    17    1
    17    14    18    2
    18    18    11    1
    19    10    19    1
    20    19    20    1
    21    20     7    1
    22     6    21    1
    23    21    22    1
    24    22     3    1
    25     3    23    1
    26     6    24    1
    27     7    25    1
    28    10    26    1
    29    17    27    1
    30    17    28    1
    31    17    29    1
    32     1    30    1
    33     1    31    1
    34     1    32    1
    35     2    33    1
    36     2    34    1
    37     4    35    1
    38     4    36    1
    39     5    37    1
    40     5    38    1
    41     8    39    1
    42     8    40    1
    43     9    41    1
    44     9    42    1
    45    15    43    1
    46    15    44    1
    47    16    45    1
    48    16    46    1
    49    19    47    1
    50    19    48    1
    51    20    49    1
    52    20    50    1
    53    21    51    1
    54    21    52    1
    55    22    53    1
    56    22    54    1
