@<TRIPOS>MOLECULE
*****
 54 56 0 0 0
SMALL
USER_CHARGES

@<TRIPOS>ATOM
      1 C1         -0.0722   -5.4959    5.3546 C.3     1  LIG1        0.0000
      2 C2         -0.7693   -5.2358    4.0291 C.3     1  LIG1        0.0000
      3 C3         -0.5516   -3.7893    3.6177 C.3     1  LIG1        0.0000
      4 C4         -1.2445   -3.5164    2.2925 C.3     1  LIG1        0.0000
      5 C5         -1.0171   -2.0696    1.8846 C.3     1  LIG1        0.0000
      6 C6          0.4698   -1.7769    1.7631 C.3     1  LIG1        0.0000
      7 C7          0.6810   -0.3269    1.3592 C.3     1  LIG1        0.0000
      8 C8          2.1659   -0.0201    1.2339 C.3     1  LIG1        0.0000
      9 C9          2.4075    1.4100    0.7724 C.3     1  LIG1        0.0000
     10 C10         1.1030    2.1632    0.5593 C.3     1  LIG1        0.0000
     11 N11         1.3736    3.5179    0.0592 N.pl3   1  LIG1        0.0000
     12 N12         1.9990    3.8052   -1.0561 N.2     1  LIG1        0.0000
     13 N13         2.0670    5.0562   -1.2002 N.2     1  LIG1        0.0000
     14 C14         1.4529    5.6072   -0.1167 C.2     1  LIG1        0.0000
     15 C15         1.2872    7.0941    0.1546 C.3     1  LIG1        0.0000
     16 C16         2.4811    7.6006    0.9473 C.3     1  LIG1        0.0000
     17 N17         2.3210    9.0382    1.2096 N.4     1  LIG1        1.0000
     18 N18         1.0311    4.6336    0.6533 N.2     1  LIG1        0.0000
     19 C19         0.2593    1.3826   -0.4378 C.3     1  LIG1        0.0000
     20 C20         0.0121   -0.0477    0.0227 C.3     1  LIG1        0.0000
     21 C21         1.1526   -2.0511    3.0934 C.3     1  LIG1        0.0000
     22 C22         0.9361   -3.4981    3.5059 C.3     1  LIG1        0.0000
     23 H          -0.9455   -3.1923    4.3166 H       1  LIG1        0.0000
     24 H           0.8646   -2.3724    1.0635 H       1  LIG1        0.0000
     25 H           0.2813    0.2686    2.0561 H       1  LIG1        0.0000
     26 H           0.6126    2.2248    1.4286 H       1  LIG1        0.0000
     27 H           3.1064    9.3714    1.7311 H       1  LIG1        0.0000
     28 H           2.2640    9.5311    0.3414 H       1  LIG1        0.0000
     29 H           1.4836    9.1900    1.7346 H       1  LIG1        0.0000
     30 H          -0.2154   -6.4479    5.6254 H       1  LIG1        0.0000
     31 H           0.9075   -5.3213    5.2559 H       1  LIG1        0.0000
     32 H          -0.4500   -4.8898    6.0545 H       1  LIG1        0.0000
     33 H          -0.3914   -5.8420    3.3292 H       1  LIG1        0.0000
     34 H          -1.7489   -5.4105    4.1278 H       1  LIG1        0.0000
     35 H          -2.2255   -3.6843    2.3894 H       1  LIG1        0.0000
     36 H          -0.8703   -4.1225    1.5906 H       1  LIG1        0.0000
     37 H          -1.4582   -1.9033    1.0027 H       1  LIG1        0.0000
     38 H          -1.4156   -1.4666    2.5757 H       1  LIG1        0.0000
     39 H           2.5718   -0.6480    0.5698 H       1  LIG1        0.0000
     40 H           2.6004   -0.1509    2.1250 H       1  LIG1        0.0000
     41 H           2.9471    1.8871    1.4660 H       1  LIG1        0.0000
     42 H           2.9145    1.3907   -0.0893 H       1  LIG1        0.0000
     43 H           0.4498    7.2459    0.6796 H       1  LIG1        0.0000
     44 H           1.2302    7.5870   -0.7136 H       1  LIG1        0.0000
     45 H           2.5381    7.1077    1.8156 H       1  LIG1        0.0000
     46 H           3.3185    7.4488    0.4223 H       1  LIG1        0.0000
     47 H           0.7353    1.3613   -1.3170 H       1  LIG1        0.0000
     48 H          -0.6214    1.8438   -0.5467 H       1  LIG1        0.0000
     49 H          -0.9728   -0.1934    0.1157 H       1  LIG1        0.0000
     50 H           0.3791   -0.6774   -0.6620 H       1  LIG1        0.0000
     51 H           0.7690   -1.4475    3.7922 H       1  LIG1        0.0000
     52 H           2.1331   -1.8764    3.0037 H       1  LIG1        0.0000
     53 H           1.3412   -4.1023    2.8197 H       1  LIG1        0.0000
     54 H           1.3726   -3.6590    4.3911 H       1  LIG1        0.0000
@<TRIPOS>UNITY_ATOM_ATTR
17 1
charge 1
@<TRIPOS>BOND
     1     1     2    1
     2     2     3    1
     3     3     4    1
     4     4     5    1
     5     5     6    1
     6     6     7    1
     7     7     8    1
     8     8     9    1
     9     9    10    1
    10    10    11    1
    11    11    12    1
    12    12    13    2
    13    13    14    1
    14    14    15    1
    15    15    16    1
    16    16    17    1
    17    14    18    2
    18    18    11    1
    19    10    19    1
    20    19    20    1
    21    20     7    1
    22     6    21    1
    23    21    22    1
    24    22     3    1
    25     3    23    1
    26     6    24    1
    27     7    25    1
    28    10    26    1
    29    17    27    1
    30    17    28    1
    31    17    29    1
    32     1    30    1
    33     1    31    1
    34     1    32    1
    35     2    33    1
    36     2    34    1
    37     4    35    1
    38     4    36    1
    39     5    37    1
    40     5    38    1
    41     8    39    1
    42     8    40    1
    43     9    41    1
    44     9    42    1
    45    15    43    1
    46    15    44    1
    47    16    45    1
    48    16    46    1
    49    19    47    1
    50    19    48    1
    51    20    49    1
    52    20    50    1
    53    21    51    1
    54    21    52    1
    55    22    53    1
    56    22    54    1
