@<TRIPOS>MOLECULE
*****
 54 56 0 0 0
SMALL
USER_CHARGES

@<TRIPOS>ATOM
      1 C1          6.5629    0.0104    6.1303 C.3     1  LIG1        0.0000
      2 C2          5.1271   -0.4872    6.1677 C.3     1  LIG1        0.0000
      3 C3          4.3877    0.0062    4.9351 C.3     1  LIG1        0.0000
      4 C4          2.9495   -0.4852    4.9609 C.3     1  LIG1        0.0000
      5 C5          2.2184    0.0070    3.7221 C.3     1  LIG1        0.0000
      6 C6          2.9126   -0.4848    2.4622 C.3     1  LIG1        0.0000
      7 C7          2.1732    0.0184    1.2333 C.3     1  LIG1        0.0000
      8 C8          2.1537    1.5386    1.2266 C.3     1  LIG1        0.0000
      9 C9          1.4132    2.0574    0.0045 C.3     1  LIG1        0.0000
     10 C10        -0.0087    1.5199    0.0015 C.3     1  LIG1        0.0000
     11 N11        -0.7294    2.0126   -1.1802 N.pl3   1  LIG1        0.0000
     12 N12        -0.9464    3.2729   -1.4670 N.2     1  LIG1        0.0000
     13 N13        -1.5894    3.3627   -2.5481 N.2     1  LIG1        0.0000
     14 C14        -1.8008    2.0894   -2.9827 C.2     1  LIG1        0.0000
     15 C15        -2.5389    1.6906   -4.2508 C.3     1  LIG1        0.0000
     16 C16        -2.5556    0.1755   -4.3720 C.3     1  LIG1        0.0000
     17 N17        -3.2692   -0.2101   -5.5980 N.4     1  LIG1        1.0000
     18 N18        -1.2597    1.2668   -2.1170 N.2     1  LIG1        0.0000
     19 C19         0.0010   -0.0001    0.0092 C.3     1  LIG1        0.0000
     20 C20         0.7473   -0.5086    1.2320 C.3     1  LIG1        0.0000
     21 C21         4.3489    0.0133    2.4454 C.3     1  LIG1        0.0000
     22 C22         5.0898   -0.4801    3.6776 C.3     1  LIG1        0.0000
     23 H           4.3871    1.0062    4.9380 H       1  LIG1        0.0000
     24 H           2.9128   -1.4848    2.4575 H       1  LIG1        0.0000
     25 H           2.6431   -0.3065    0.4125 H       1  LIG1        0.0000
     26 H          -0.4776    1.8435    0.8233 H       1  LIG1        0.0000
     27 H          -3.2802   -1.2069   -5.6778 H       1  LIG1        0.0000
     28 H          -4.2082    0.1315   -5.5586 H       1  LIG1        0.0000
     29 H          -2.8046    0.1827   -6.3917 H       1  LIG1        0.0000
     30 H           7.0494   -0.3142    6.9414 H       1  LIG1        0.0000
     31 H           7.0149   -0.3375    5.3089 H       1  LIG1        0.0000
     32 H           6.5689    1.0103    6.1159 H       1  LIG1        0.0000
     33 H           5.1211   -1.4870    6.1821 H       1  LIG1        0.0000
     34 H           4.6750   -0.1392    6.9890 H       1  LIG1        0.0000
     35 H           2.4927   -0.1340    5.7781 H       1  LIG1        0.0000
     36 H           2.9399   -1.4850    4.9773 H       1  LIG1        0.0000
     37 H           1.2795   -0.3370    3.7359 H       1  LIG1        0.0000
     38 H           2.2071    1.0069    3.7224 H       1  LIG1        0.0000
     39 H           3.0936    1.8795    1.2110 H       1  LIG1        0.0000
     40 H           1.6943    1.8652    2.0527 H       1  LIG1        0.0000
     41 H           1.3908    3.0568    0.0286 H       1  LIG1        0.0000
     42 H           1.8849    1.7544   -0.8236 H       1  LIG1        0.0000
     43 H          -2.0744    2.0834   -5.0444 H       1  LIG1        0.0000
     44 H          -3.4779    2.0322   -4.2113 H       1  LIG1        0.0000
     45 H          -1.6166   -0.1661   -4.4115 H       1  LIG1        0.0000
     46 H          -3.0202   -0.2173   -3.5784 H       1  LIG1        0.0000
     47 H           0.4545   -0.3327   -0.8177 H       1  LIG1        0.0000
     48 H          -0.9402   -0.3373    0.0316 H       1  LIG1        0.0000
     49 H           0.2789   -0.1962    2.0584 H       1  LIG1        0.0000
     50 H           0.7646   -1.5083    1.2164 H       1  LIG1        0.0000
     51 H           4.3517    1.0132    2.4365 H       1  LIG1        0.0000
     52 H           4.8075   -0.3287    1.6252 H       1  LIG1        0.0000
     53 H           5.1089   -1.4799    3.6745 H       1  LIG1        0.0000
     54 H           6.0259   -0.1287    3.6640 H       1  LIG1        0.0000
@<TRIPOS>UNITY_ATOM_ATTR
17 1
charge 1
@<TRIPOS>BOND
     1     1     2    1
     2     2     3    1
     3     3     4    1
     4     4     5    1
     5     5     6    1
     6     6     7    1
     7     7     8    1
     8     8     9    1
     9     9    10    1
    10    10    11    1
    11    11    12    1
    12    12    13    2
    13    13    14    1
    14    14    15    1
    15    15    16    1
    16    16    17    1
    17    14    18    2
    18    18    11    1
    19    10    19    1
    20    19    20    1
    21    20     7    1
    22     6    21    1
    23    21    22    1
    24    22     3    1
    25     3    23    1
    26     6    24    1
    27     7    25    1
    28    10    26    1
    29    17    27    1
    30    17    28    1
    31    17    29    1
    32     1    30    1
    33     1    31    1
    34     1    32    1
    35     2    33    1
    36     2    34    1
    37     4    35    1
    38     4    36    1
    39     5    37    1
    40     5    38    1
    41     8    39    1
    42     8    40    1
    43     9    41    1
    44     9    42    1
    45    15    43    1
    46    15    44    1
    47    16    45    1
    48    16    46    1
    49    19    47    1
    50    19    48    1
    51    20    49    1
    52    20    50    1
    53    21    51    1
    54    21    52    1
    55    22    53    1
    56    22    54    1
