@<TRIPOS>MOLECULE

  33   35
SMALL
USER_CHARGES
@<TRIPOS>ATOM
   1 C1           0.6052    -0.7661     1.0341 C.3          1    LIG   0.0000
   2 S2           1.0000     1.0000     1.0000 S.3          1    LIG   0.0000
   3 C3           2.7405     1.0000     1.0000 C.2          1    LIG   0.0000
   4 C4           3.5725    -0.1398     1.0220 C.2          1    LIG   0.0000
   5 C5           4.8424     0.3445     1.0139 C.2          1    LIG   0.0000
   6 C6           6.0546    -0.4514     1.0316 C.ar         1    LIG   0.0000
   7 C7           6.2022    -1.4598     1.9783 C.ar         1    LIG   0.0000
   8 C8           7.3683    -2.2178     1.9884 C.ar         1    LIG   0.0000
   9 C9           8.3717    -1.9642     1.0582 C.ar         1    LIG   0.0000
  10 C10          8.2156    -0.9539     0.1148 C.ar         1    LIG   0.0000
  11 C11          7.0525    -0.1906     0.0982 C.ar         1    LIG   0.0000
  12 N12          4.7733     1.7021     0.9848 N.pl3        1    LIG   0.0000
  13 C13          5.8671     2.5767     0.9659 C.ar         1    LIG   0.0000
  14 C14          5.8251     3.7110     0.1614 C.ar         1    LIG   0.0000
  15 C15          6.9061     4.5866     0.1364 C.ar         1    LIG   0.0000
  16 C16          8.0198     4.3104     0.9227 C.ar         1    LIG   0.0000
  17 F17          9.0581     5.1411     0.9032 F            1    LIG   0.0000
  18 C18          8.0706     3.1784     1.7298 C.ar         1    LIG   0.0000
  19 C19          6.9853     2.3092     1.7484 C.ar         1    LIG   0.0000
  20 N20          3.5126     2.0574     0.9751 N.2          1    LIG   0.0000
  21 H           -0.3877    -0.8857     1.0364 H            1    LIG   0.0000
  22 H            0.9925    -1.2099     0.2261 H            1    LIG   0.0000
  23 H            0.9925    -1.1784     1.8587 H            1    LIG   0.0000
  24 H            3.2885    -1.0984     1.0398 H            1    LIG   0.0000
  25 H            5.4777    -1.6379     2.6443 H            1    LIG   0.0000
  26 H            7.4858    -2.9452     2.6645 H            1    LIG   0.0000
  27 H            9.2090    -2.5108     1.0679 H            1    LIG   0.0000
  28 H            8.9396    -0.7762    -0.5517 H            1    LIG   0.0000
  29 H            6.9352     0.5374    -0.5773 H            1    LIG   0.0000
  30 H            5.0180     3.8971    -0.3988 H            1    LIG   0.0000
  31 H            6.8827     5.4038    -0.4394 H            1    LIG   0.0000
  32 H            8.8778     2.9921     2.2898 H            1    LIG   0.0000
  33 H            7.0088     1.4920     2.3243 H            1    LIG   0.0000
@<TRIPOS>BOND
   1        1        2 1
   2        2        3 1
   3        3        4 1
   4        4        5 2
   5        5        6 1
   6        6        7 ar
   7        7        8 ar
   8        8        9 ar
   9        9       10 ar
  10       10       11 ar
  11       11        6 ar
  12        5       12 1
  13       12       13 1
  14       13       14 ar
  15       14       15 ar
  16       15       16 ar
  17       16       17 1
  18       16       18 ar
  19       18       19 ar
  20       19       13 ar
  21       12       20 1
  22       20        3 2
  23        1       21 1
  24        1       22 1
  25        1       23 1
  26        4       24 1
  27        7       25 1
  28        8       26 1
  29        9       27 1
  30       10       28 1
  31       11       29 1
  32       14       30 1
  33       15       31 1
  34       18       32 1
  35       19       33 1

@<TRIPOS>MOLECULE

  33   35
SMALL
USER_CHARGES
@<TRIPOS>ATOM
   1 C1           0.6052    -0.7661     1.0341 C.3          1    LIG   0.0000
   2 S2           1.0000     1.0000     1.0000 S.3          1    LIG   0.0000
   3 C3           2.7405     1.0000     1.0000 C.2          1    LIG   0.0000
   4 C4           3.5725    -0.1398     1.0220 C.2          1    LIG   0.0000
   5 C5           4.8424     0.3445     1.0139 C.2          1    LIG   0.0000
   6 C6           6.0546    -0.4514     1.0316 C.ar         1    LIG   0.0000
   7 C7           7.1393    -0.0710     0.2482 C.ar         1    LIG   0.0000
   8 C8           8.2976    -0.8406     0.2707 C.ar         1    LIG   0.0000
   9 C9           8.3631    -1.9771     1.0710 C.ar         1    LIG   0.0000
  10 C10          7.2736    -2.3500     1.8515 C.ar         1    LIG   0.0000
  11 C11          6.1109    -1.5861     1.8343 C.ar         1    LIG   0.0000
  12 N12          4.7733     1.7021     0.9848 N.pl3        1    LIG   0.0000
  13 C13          5.8671     2.5767     0.9659 C.ar         1    LIG   0.0000
  14 C14          5.8251     3.7110     0.1614 C.ar         1    LIG   0.0000
  15 C15          6.9061     4.5866     0.1364 C.ar         1    LIG   0.0000
  16 C16          8.0198     4.3104     0.9227 C.ar         1    LIG   0.0000
  17 F17          9.0581     5.1411     0.9032 F            1    LIG   0.0000
  18 C18          8.0706     3.1784     1.7298 C.ar         1    LIG   0.0000
  19 C19          6.9853     2.3092     1.7484 C.ar         1    LIG   0.0000
  20 N20          3.5126     2.0574     0.9751 N.2          1    LIG   0.0000
  21 H           -0.3877    -0.8857     1.0364 H            1    LIG   0.0000
  22 H            0.9925    -1.2099     0.2261 H            1    LIG   0.0000
  23 H            0.9925    -1.1784     1.8587 H            1    LIG   0.0000
  24 H            3.2885    -1.0984     1.0398 H            1    LIG   0.0000
  25 H            7.0868     0.7469    -0.3249 H            1    LIG   0.0000
  26 H            9.0837    -0.5771    -0.2885 H            1    LIG   0.0000
  27 H            9.1972    -2.5284     1.0851 H            1    LIG   0.0000
  28 H            7.3262    -3.1674     2.4251 H            1    LIG   0.0000
  29 H            5.3245    -1.8499     2.3928 H            1    LIG   0.0000
  30 H            5.0180     3.8971    -0.3988 H            1    LIG   0.0000
  31 H            6.8827     5.4038    -0.4394 H            1    LIG   0.0000
  32 H            8.8778     2.9921     2.2898 H            1    LIG   0.0000
  33 H            7.0088     1.4920     2.3243 H            1    LIG   0.0000
@<TRIPOS>BOND
   1        1        2 1
   2        2        3 1
   3        3        4 1
   4        4        5 2
   5        5        6 1
   6        6        7 ar
   7        7        8 ar
   8        8        9 ar
   9        9       10 ar
  10       10       11 ar
  11       11        6 ar
  12        5       12 1
  13       12       13 1
  14       13       14 ar
  15       14       15 ar
  16       15       16 ar
  17       16       17 1
  18       16       18 ar
  19       18       19 ar
  20       19       13 ar
  21       12       20 1
  22       20        3 2
  23        1       21 1
  24        1       22 1
  25        1       23 1
  26        4       24 1
  27        7       25 1
  28        8       26 1
  29        9       27 1
  30       10       28 1
  31       11       29 1
  32       14       30 1
  33       15       31 1
  34       18       32 1
  35       19       33 1

@<TRIPOS>MOLECULE

  33   35
SMALL
USER_CHARGES
@<TRIPOS>ATOM
   1 C1           0.6052    -0.7661     1.0341 C.3          1    LIG   0.0000
   2 S2           1.0000     1.0000     1.0000 S.3          1    LIG   0.0000
   3 C3           2.7405     1.0000     1.0000 C.2          1    LIG   0.0000
   4 C4           3.5725    -0.1398     1.0220 C.2          1    LIG   0.0000
   5 C5           4.8424     0.3445     1.0139 C.2          1    LIG   0.0000
   6 C6           6.0546    -0.4514     1.0316 C.ar         1    LIG   0.0000
   7 C7           6.2046    -1.4972     0.1267 C.ar         1    LIG   0.0000
   8 C8           7.3701    -2.2558     0.1512 C.ar         1    LIG   0.0000
   9 C9           8.3708    -1.9653     1.0736 C.ar         1    LIG   0.0000
  10 C10          8.2124    -0.9175     1.9747 C.ar         1    LIG   0.0000
  11 C11          7.0494    -0.1541     1.9574 C.ar         1    LIG   0.0000
  12 N12          4.7733     1.7021     0.9848 N.pl3        1    LIG   0.0000
  13 C13          5.8671     2.5767     0.9659 C.ar         1    LIG   0.0000
  14 C14          5.8233     3.7471     1.7168 C.ar         1    LIG   0.0000
  15 C15          6.9051     4.6218     1.7055 C.ar         1    LIG   0.0000
  16 C16          8.0215     4.3086     0.9372 C.ar         1    LIG   0.0000
  17 F17          9.0591     5.1402     0.9194 F            1    LIG   0.0000
  18 C18          8.0739     3.1408     0.1830 C.ar         1    LIG   0.0000
  19 C19          6.9879     2.2724     0.2006 C.ar         1    LIG   0.0000
  20 N20          3.5126     2.0574     0.9751 N.2          1    LIG   0.0000
  21 H           -0.3877    -0.8857     1.0364 H            1    LIG   0.0000
  22 H            0.9925    -1.2099     0.2261 H            1    LIG   0.0000
  23 H            0.9925    -1.1784     1.8587 H            1    LIG   0.0000
  24 H            3.2885    -1.0984     1.0398 H            1    LIG   0.0000
  25 H            5.4824    -1.7013    -0.5342 H            1    LIG   0.0000
  26 H            7.4891    -3.0102    -0.4943 H            1    LIG   0.0000
  27 H            9.2076    -2.5125     1.0888 H            1    LIG   0.0000
  28 H            8.9348    -0.7128     2.6352 H            1    LIG   0.0000
  29 H            6.9299     0.5999     2.6033 H            1    LIG   0.0000
  30 H            5.0141     3.9596     2.2646 H            1    LIG   0.0000
  31 H            6.8804     5.4648     2.2429 H            1    LIG   0.0000
  32 H            8.8828     2.9283    -0.3651 H            1    LIG   0.0000
  33 H            7.0127     1.4294    -0.3368 H            1    LIG   0.0000
@<TRIPOS>BOND
   1        1        2 1
   2        2        3 1
   3        3        4 1
   4        4        5 2
   5        5        6 1
   6        6        7 ar
   7        7        8 ar
   8        8        9 ar
   9        9       10 ar
  10       10       11 ar
  11       11        6 ar
  12        5       12 1
  13       12       13 1
  14       13       14 ar
  15       14       15 ar
  16       15       16 ar
  17       16       17 1
  18       16       18 ar
  19       18       19 ar
  20       19       13 ar
  21       12       20 1
  22       20        3 2
  23        1       21 1
  24        1       22 1
  25        1       23 1
  26        4       24 1
  27        7       25 1
  28        8       26 1
  29        9       27 1
  30       10       28 1
  31       11       29 1
  32       14       30 1
  33       15       31 1
  34       18       32 1
  35       19       33 1

@<TRIPOS>MOLECULE

  33   35
SMALL
USER_CHARGES
@<TRIPOS>ATOM
   1 C1           0.6052    -0.7661     1.0341 C.3          1    LIG   0.0000
   2 S2           1.0000     1.0000     1.0000 S.3          1    LIG   0.0000
   3 C3           2.7405     1.0000     1.0000 C.2          1    LIG   0.0000
   4 C4           3.5725    -0.1398     1.0220 C.2          1    LIG   0.0000
   5 C5           4.8424     0.3445     1.0139 C.2          1    LIG   0.0000
   6 C6           6.0546    -0.4514     1.0316 C.ar         1    LIG   0.0000
   7 C7           7.1372    -0.0396     1.8019 C.ar         1    LIG   0.0000
   8 C8           8.2961    -0.8087     1.8123 C.ar         1    LIG   0.0000
   9 C9           8.3639    -1.9761     1.0581 C.ar         1    LIG   0.0000
  10 C10          7.2763    -2.3806     0.2908 C.ar         1    LIG   0.0000
  11 C11          6.1136    -1.6168     0.2742 C.ar         1    LIG   0.0000
  12 N12          4.7733     1.7021     0.9848 N.pl3        1    LIG   0.0000
  13 C13          5.8671     2.5767     0.9659 C.ar         1    LIG   0.0000
  14 C14          5.8233     3.7471     1.7168 C.ar         1    LIG   0.0000
  15 C15          6.9051     4.6218     1.7055 C.ar         1    LIG   0.0000
  16 C16          8.0215     4.3086     0.9372 C.ar         1    LIG   0.0000
  17 F17          9.0591     5.1402     0.9194 F            1    LIG   0.0000
  18 C18          8.0739     3.1408     0.1830 C.ar         1    LIG   0.0000
  19 C19          6.9879     2.2724     0.2006 C.ar         1    LIG   0.0000
  20 N20          3.5126     2.0574     0.9751 N.2          1    LIG   0.0000
  21 H           -0.3877    -0.8857     1.0364 H            1    LIG   0.0000
  22 H            0.9925    -1.2099     0.2261 H            1    LIG   0.0000
  23 H            0.9925    -1.1784     1.8587 H            1    LIG   0.0000
  24 H            3.2885    -1.0984     1.0398 H            1    LIG   0.0000
  25 H            7.0829     0.8001     2.3422 H            1    LIG   0.0000
  26 H            9.0809    -0.5226     2.3621 H            1    LIG   0.0000
  27 H            9.1984    -2.5270     1.0676 H            1    LIG   0.0000
  28 H            7.3302    -3.2206    -0.2490 H            1    LIG   0.0000
  29 H            5.3289    -1.9023    -0.2761 H            1    LIG   0.0000
  30 H            5.0141     3.9596     2.2646 H            1    LIG   0.0000
  31 H            6.8804     5.4648     2.2429 H            1    LIG   0.0000
  32 H            8.8828     2.9283    -0.3651 H            1    LIG   0.0000
  33 H            7.0127     1.4294    -0.3368 H            1    LIG   0.0000
@<TRIPOS>BOND
   1        1        2 1
   2        2        3 1
   3        3        4 1
   4        4        5 2
   5        5        6 1
   6        6        7 ar
   7        7        8 ar
   8        8        9 ar
   9        9       10 ar
  10       10       11 ar
  11       11        6 ar
  12        5       12 1
  13       12       13 1
  14       13       14 ar
  15       14       15 ar
  16       15       16 ar
  17       16       17 1
  18       16       18 ar
  19       18       19 ar
  20       19       13 ar
  21       12       20 1
  22       20        3 2
  23        1       21 1
  24        1       22 1
  25        1       23 1
  26        4       24 1
  27        7       25 1
  28        8       26 1
  29        9       27 1
  30       10       28 1
  31       11       29 1
  32       14       30 1
  33       15       31 1
  34       18       32 1
  35       19       33 1

@<TRIPOS>MOLECULE

  33   35
SMALL
USER_CHARGES
@<TRIPOS>ATOM
   1 C1           0.6052    -0.7661     1.0341 C.3          1    LIG   0.0000
   2 S2           1.0000     1.0000     1.0000 S.3          1    LIG   0.0000
   3 C3           2.7405     1.0000     1.0000 C.2          1    LIG   0.0000
   4 C4           3.5725    -0.1398     1.0220 C.2          1    LIG   0.0000
   5 C5           4.8424     0.3445     1.0139 C.2          1    LIG   0.0000
   6 C6           6.0546    -0.4514     1.0316 C.ar         1    LIG   0.0000
   7 C7           6.2022    -1.4598     1.9783 C.ar         1    LIG   0.0000
   8 C8           7.3683    -2.2178     1.9884 C.ar         1    LIG   0.0000
   9 C9           8.3717    -1.9642     1.0582 C.ar         1    LIG   0.0000
  10 C10          8.2156    -0.9539     0.1148 C.ar         1    LIG   0.0000
  11 C11          7.0525    -0.1906     0.0982 C.ar         1    LIG   0.0000
  12 N12          4.7733     1.7021     0.9848 N.pl3        1    LIG   0.0000
  13 C13          5.8671     2.5767     0.9659 C.ar         1    LIG   0.0000
  14 C14          6.8879     2.4194     1.8980 C.ar         1    LIG   0.0000
  15 C15          7.9792     3.2822     1.8868 C.ar         1    LIG   0.0000
  16 C16          8.0315     4.2961     0.9358 C.ar         1    LIG   0.0000
  17 F17          9.0703     5.1263     0.9195 F            1    LIG   0.0000
  18 C18          7.0153     4.4609     0.0002 C.ar         1    LIG   0.0000
  19 C19          5.9285     3.5935     0.0190 C.ar         1    LIG   0.0000
  20 N20          3.5126     2.0574     0.9751 N.2          1    LIG   0.0000
  21 H           -0.3877    -0.8857     1.0364 H            1    LIG   0.0000
  22 H            0.9925    -1.2099     0.2261 H            1    LIG   0.0000
  23 H            0.9925    -1.1784     1.8587 H            1    LIG   0.0000
  24 H            3.2885    -1.0984     1.0398 H            1    LIG   0.0000
  25 H            5.4777    -1.6379     2.6443 H            1    LIG   0.0000
  26 H            7.4858    -2.9452     2.6645 H            1    LIG   0.0000
  27 H            9.2090    -2.5108     1.0679 H            1    LIG   0.0000
  28 H            8.9396    -0.7762    -0.5517 H            1    LIG   0.0000
  29 H            6.9352     0.5374    -0.5773 H            1    LIG   0.0000
  30 H            6.8372     1.6862     2.5761 H            1    LIG   0.0000
  31 H            8.7165     3.1750     2.5538 H            1    LIG   0.0000
  32 H            7.0657     5.1943    -0.6777 H            1    LIG   0.0000
  33 H            5.1913     3.7008    -0.6481 H            1    LIG   0.0000
@<TRIPOS>BOND
   1        1        2 1
   2        2        3 1
   3        3        4 1
   4        4        5 2
   5        5        6 1
   6        6        7 ar
   7        7        8 ar
   8        8        9 ar
   9        9       10 ar
  10       10       11 ar
  11       11        6 ar
  12        5       12 1
  13       12       13 1
  14       13       14 ar
  15       14       15 ar
  16       15       16 ar
  17       16       17 1
  18       16       18 ar
  19       18       19 ar
  20       19       13 ar
  21       12       20 1
  22       20        3 2
  23        1       21 1
  24        1       22 1
  25        1       23 1
  26        4       24 1
  27        7       25 1
  28        8       26 1
  29        9       27 1
  30       10       28 1
  31       11       29 1
  32       14       30 1
  33       15       31 1
  34       18       32 1
  35       19       33 1

@<TRIPOS>MOLECULE

  33   35
SMALL
USER_CHARGES
@<TRIPOS>ATOM
   1 C1           0.6052    -0.7661     1.0341 C.3          1    LIG   0.0000
   2 S2           1.0000     1.0000     1.0000 S.3          1    LIG   0.0000
   3 C3           2.7405     1.0000     1.0000 C.2          1    LIG   0.0000
   4 C4           3.5725    -0.1398     1.0220 C.2          1    LIG   0.0000
   5 C5           4.8424     0.3445     1.0139 C.2          1    LIG   0.0000
   6 C6           6.0546    -0.4514     1.0316 C.ar         1    LIG   0.0000
   7 C7           7.1393    -0.0710     0.2482 C.ar         1    LIG   0.0000
   8 C8           8.2976    -0.8406     0.2707 C.ar         1    LIG   0.0000
   9 C9           8.3631    -1.9771     1.0710 C.ar         1    LIG   0.0000
  10 C10          7.2736    -2.3500     1.8515 C.ar         1    LIG   0.0000
  11 C11          6.1109    -1.5861     1.8343 C.ar         1    LIG   0.0000
  12 N12          4.7733     1.7021     0.9848 N.pl3        1    LIG   0.0000
  13 C13          5.8671     2.5767     0.9659 C.ar         1    LIG   0.0000
  14 C14          6.8879     2.4194     1.8980 C.ar         1    LIG   0.0000
  15 C15          7.9792     3.2822     1.8868 C.ar         1    LIG   0.0000
  16 C16          8.0315     4.2961     0.9358 C.ar         1    LIG   0.0000
  17 F17          9.0703     5.1263     0.9195 F            1    LIG   0.0000
  18 C18          7.0153     4.4609     0.0002 C.ar         1    LIG   0.0000
  19 C19          5.9285     3.5935     0.0190 C.ar         1    LIG   0.0000
  20 N20          3.5126     2.0574     0.9751 N.2          1    LIG   0.0000
  21 H           -0.3877    -0.8857     1.0364 H            1    LIG   0.0000
  22 H            0.9925    -1.2099     0.2261 H            1    LIG   0.0000
  23 H            0.9925    -1.1784     1.8587 H            1    LIG   0.0000
  24 H            3.2885    -1.0984     1.0398 H            1    LIG   0.0000
  25 H            7.0868     0.7469    -0.3249 H            1    LIG   0.0000
  26 H            9.0837    -0.5771    -0.2885 H            1    LIG   0.0000
  27 H            9.1972    -2.5284     1.0851 H            1    LIG   0.0000
  28 H            7.3262    -3.1674     2.4251 H            1    LIG   0.0000
  29 H            5.3245    -1.8499     2.3928 H            1    LIG   0.0000
  30 H            6.8372     1.6862     2.5761 H            1    LIG   0.0000
  31 H            8.7165     3.1750     2.5538 H            1    LIG   0.0000
  32 H            7.0657     5.1943    -0.6777 H            1    LIG   0.0000
  33 H            5.1913     3.7008    -0.6481 H            1    LIG   0.0000
@<TRIPOS>BOND
   1        1        2 1
   2        2        3 1
   3        3        4 1
   4        4        5 2
   5        5        6 1
   6        6        7 ar
   7        7        8 ar
   8        8        9 ar
   9        9       10 ar
  10       10       11 ar
  11       11        6 ar
  12        5       12 1
  13       12       13 1
  14       13       14 ar
  15       14       15 ar
  16       15       16 ar
  17       16       17 1
  18       16       18 ar
  19       18       19 ar
  20       19       13 ar
  21       12       20 1
  22       20        3 2
  23        1       21 1
  24        1       22 1
  25        1       23 1
  26        4       24 1
  27        7       25 1
  28        8       26 1
  29        9       27 1
  30       10       28 1
  31       11       29 1
  32       14       30 1
  33       15       31 1
  34       18       32 1
  35       19       33 1

@<TRIPOS>MOLECULE

  33   35
SMALL
USER_CHARGES
@<TRIPOS>ATOM
   1 C1           0.6052    -0.7661     1.0341 C.3          1    LIG   0.0000
   2 S2           1.0000     1.0000     1.0000 S.3          1    LIG   0.0000
   3 C3           2.7405     1.0000     1.0000 C.2          1    LIG   0.0000
   4 C4           3.5725    -0.1398     1.0220 C.2          1    LIG   0.0000
   5 C5           4.8424     0.3445     1.0139 C.2          1    LIG   0.0000
   6 C6           6.0546    -0.4514     1.0316 C.ar         1    LIG   0.0000
   7 C7           6.2046    -1.4972     0.1267 C.ar         1    LIG   0.0000
   8 C8           7.3701    -2.2558     0.1512 C.ar         1    LIG   0.0000
   9 C9           8.3708    -1.9653     1.0736 C.ar         1    LIG   0.0000
  10 C10          8.2124    -0.9175     1.9747 C.ar         1    LIG   0.0000
  11 C11          7.0494    -0.1541     1.9574 C.ar         1    LIG   0.0000
  12 N12          4.7733     1.7021     0.9848 N.pl3        1    LIG   0.0000
  13 C13          5.8671     2.5767     0.9659 C.ar         1    LIG   0.0000
  14 C14          6.8901     2.3765     0.0444 C.ar         1    LIG   0.0000
  15 C15          7.9804     3.2403     0.0168 C.ar         1    LIG   0.0000
  16 C16          8.0295     4.2982     0.9186 C.ar         1    LIG   0.0000
  17 F17          9.0691     5.1273     0.9001 F            1    LIG   0.0000
  18 C18          7.0113     4.5058     1.8435 C.ar         1    LIG   0.0000
  19 C19          5.9254     3.6373     1.8635 C.ar         1    LIG   0.0000
  20 N20          3.5126     2.0574     0.9751 N.2          1    LIG   0.0000
  21 H           -0.3877    -0.8857     1.0364 H            1    LIG   0.0000
  22 H            0.9925    -1.2099     0.2261 H            1    LIG   0.0000
  23 H            0.9925    -1.1784     1.8587 H            1    LIG   0.0000
  24 H            3.2885    -1.0984     1.0398 H            1    LIG   0.0000
  25 H            5.4824    -1.7013    -0.5342 H            1    LIG   0.0000
  26 H            7.4891    -3.0102    -0.4943 H            1    LIG   0.0000
  27 H            9.2076    -2.5125     1.0888 H            1    LIG   0.0000
  28 H            8.9348    -0.7128     2.6352 H            1    LIG   0.0000
  29 H            6.9299     0.5999     2.6033 H            1    LIG   0.0000
  30 H            6.8418     1.6117    -0.5980 H            1    LIG   0.0000
  31 H            8.7193     3.1023    -0.6428 H            1    LIG   0.0000
  32 H            7.0597     5.2703     2.4863 H            1    LIG   0.0000
  33 H            5.1866     3.7754     2.5232 H            1    LIG   0.0000
@<TRIPOS>BOND
   1        1        2 1
   2        2        3 1
   3        3        4 1
   4        4        5 2
   5        5        6 1
   6        6        7 ar
   7        7        8 ar
   8        8        9 ar
   9        9       10 ar
  10       10       11 ar
  11       11        6 ar
  12        5       12 1
  13       12       13 1
  14       13       14 ar
  15       14       15 ar
  16       15       16 ar
  17       16       17 1
  18       16       18 ar
  19       18       19 ar
  20       19       13 ar
  21       12       20 1
  22       20        3 2
  23        1       21 1
  24        1       22 1
  25        1       23 1
  26        4       24 1
  27        7       25 1
  28        8       26 1
  29        9       27 1
  30       10       28 1
  31       11       29 1
  32       14       30 1
  33       15       31 1
  34       18       32 1
  35       19       33 1

@<TRIPOS>MOLECULE

  33   35
SMALL
USER_CHARGES
@<TRIPOS>ATOM
   1 C1           0.6052    -0.7661     1.0341 C.3          1    LIG   0.0000
   2 S2           1.0000     1.0000     1.0000 S.3          1    LIG   0.0000
   3 C3           2.7405     1.0000     1.0000 C.2          1    LIG   0.0000
   4 C4           3.5725    -0.1398     1.0220 C.2          1    LIG   0.0000
   5 C5           4.8424     0.3445     1.0139 C.2          1    LIG   0.0000
   6 C6           6.0546    -0.4514     1.0316 C.ar         1    LIG   0.0000
   7 C7           7.1372    -0.0396     1.8019 C.ar         1    LIG   0.0000
   8 C8           8.2961    -0.8087     1.8123 C.ar         1    LIG   0.0000
   9 C9           8.3639    -1.9761     1.0581 C.ar         1    LIG   0.0000
  10 C10          7.2763    -2.3806     0.2908 C.ar         1    LIG   0.0000
  11 C11          6.1136    -1.6168     0.2742 C.ar         1    LIG   0.0000
  12 N12          4.7733     1.7021     0.9848 N.pl3        1    LIG   0.0000
  13 C13          5.8671     2.5767     0.9659 C.ar         1    LIG   0.0000
  14 C14          6.8901     2.3765     0.0444 C.ar         1    LIG   0.0000
  15 C15          7.9804     3.2403     0.0168 C.ar         1    LIG   0.0000
  16 C16          8.0295     4.2982     0.9186 C.ar         1    LIG   0.0000
  17 F17          9.0691     5.1273     0.9001 F            1    LIG   0.0000
  18 C18          7.0113     4.5058     1.8435 C.ar         1    LIG   0.0000
  19 C19          5.9254     3.6373     1.8635 C.ar         1    LIG   0.0000
  20 N20          3.5126     2.0574     0.9751 N.2          1    LIG   0.0000
  21 H           -0.3877    -0.8857     1.0364 H            1    LIG   0.0000
  22 H            0.9925    -1.2099     0.2261 H            1    LIG   0.0000
  23 H            0.9925    -1.1784     1.8587 H            1    LIG   0.0000
  24 H            3.2885    -1.0984     1.0398 H            1    LIG   0.0000
  25 H            7.0829     0.8001     2.3422 H            1    LIG   0.0000
  26 H            9.0809    -0.5226     2.3621 H            1    LIG   0.0000
  27 H            9.1984    -2.5270     1.0676 H            1    LIG   0.0000
  28 H            7.3302    -3.2206    -0.2490 H            1    LIG   0.0000
  29 H            5.3289    -1.9023    -0.2761 H            1    LIG   0.0000
  30 H            6.8418     1.6117    -0.5980 H            1    LIG   0.0000
  31 H            8.7193     3.1023    -0.6428 H            1    LIG   0.0000
  32 H            7.0597     5.2703     2.4863 H            1    LIG   0.0000
  33 H            5.1866     3.7754     2.5232 H            1    LIG   0.0000
@<TRIPOS>BOND
   1        1        2 1
   2        2        3 1
   3        3        4 1
   4        4        5 2
   5        5        6 1
   6        6        7 ar
   7        7        8 ar
   8        8        9 ar
   9        9       10 ar
  10       10       11 ar
  11       11        6 ar
  12        5       12 1
  13       12       13 1
  14       13       14 ar
  15       14       15 ar
  16       15       16 ar
  17       16       17 1
  18       16       18 ar
  19       18       19 ar
  20       19       13 ar
  21       12       20 1
  22       20        3 2
  23        1       21 1
  24        1       22 1
  25        1       23 1
  26        4       24 1
  27        7       25 1
  28        8       26 1
  29        9       27 1
  30       10       28 1
  31       11       29 1
  32       14       30 1
  33       15       31 1
  34       18       32 1
  35       19       33 1

