@<TRIPOS>MOLECULE
*****
 33 35 0 0 0
SMALL
USER_CHARGES

@<TRIPOS>ATOM
      1 C1          0.6052   -0.7661    1.0341 C.3     1  LIG1        0.0000
      2 S2          1.0000    1.0000    1.0000 S.3     1  LIG1        0.0000
      3 C3          2.7405    1.0000    1.0000 C.2     1  LIG1        0.0000
      4 C4          3.5725   -0.1398    1.0220 C.2     1  LIG1        0.0000
      5 C5          4.8424    0.3445    1.0139 C.2     1  LIG1        0.0000
      6 C6          6.0546   -0.4514    1.0316 C.ar    1  LIG1        0.0000
      7 C7          6.2022   -1.4598    1.9783 C.ar    1  LIG1        0.0000
      8 C8          7.3683   -2.2178    1.9884 C.ar    1  LIG1        0.0000
      9 C9          8.3717   -1.9642    1.0582 C.ar    1  LIG1        0.0000
     10 C10         8.2156   -0.9539    0.1148 C.ar    1  LIG1        0.0000
     11 C11         7.0525   -0.1906    0.0982 C.ar    1  LIG1        0.0000
     12 N12         4.7733    1.7021    0.9848 N.pl3   1  LIG1        0.0000
     13 C13         5.8671    2.5767    0.9659 C.ar    1  LIG1        0.0000
     14 C14         5.8251    3.7110    0.1614 C.ar    1  LIG1        0.0000
     15 C15         6.9061    4.5866    0.1364 C.ar    1  LIG1        0.0000
     16 C16         8.0198    4.3104    0.9227 C.ar    1  LIG1        0.0000
     17 F17         9.0581    5.1411    0.9032 F       1  LIG1        0.0000
     18 C18         8.0706    3.1784    1.7298 C.ar    1  LIG1        0.0000
     19 C19         6.9853    2.3092    1.7484 C.ar    1  LIG1        0.0000
     20 N20         3.5126    2.0574    0.9751 N.2     1  LIG1        0.0000
     21 H          -0.3877   -0.8857    1.0364 H       1  LIG1        0.0000
     22 H           0.9925   -1.2099    0.2261 H       1  LIG1        0.0000
     23 H           0.9925   -1.1784    1.8587 H       1  LIG1        0.0000
     24 H           3.2885   -1.0984    1.0398 H       1  LIG1        0.0000
     25 H           5.4777   -1.6379    2.6443 H       1  LIG1        0.0000
     26 H           7.4858   -2.9452    2.6645 H       1  LIG1        0.0000
     27 H           9.2090   -2.5108    1.0679 H       1  LIG1        0.0000
     28 H           8.9396   -0.7762   -0.5517 H       1  LIG1        0.0000
     29 H           6.9352    0.5374   -0.5773 H       1  LIG1        0.0000
     30 H           5.0180    3.8971   -0.3988 H       1  LIG1        0.0000
     31 H           6.8827    5.4038   -0.4394 H       1  LIG1        0.0000
     32 H           8.8778    2.9921    2.2898 H       1  LIG1        0.0000
     33 H           7.0088    1.4920    2.3243 H       1  LIG1        0.0000
@<TRIPOS>BOND
     1     1     2    1
     2     2     3    1
     3     3     4    1
     4     4     5    2
     5     5     6    1
     6     6     7   ar
     7     7     8   ar
     8     8     9   ar
     9     9    10   ar
    10    10    11   ar
    11    11     6   ar
    12     5    12    1
    13    12    13    1
    14    13    14   ar
    15    14    15   ar
    16    15    16   ar
    17    16    17    1
    18    16    18   ar
    19    18    19   ar
    20    19    13   ar
    21    12    20    1
    22    20     3    2
    23     1    21    1
    24     1    22    1
    25     1    23    1
    26     4    24    1
    27     7    25    1
    28     8    26    1
    29     9    27    1
    30    10    28    1
    31    11    29    1
    32    14    30    1
    33    15    31    1
    34    18    32    1
    35    19    33    1
