@<TRIPOS>MOLECULE
*****
 33 35 0 0 0
SMALL
USER_CHARGES

@<TRIPOS>ATOM
      1 C1          0.6052   -0.7661    1.0341 C.3     1  LIG1        0.0000
      2 S2          1.0000    1.0000    1.0000 S.3     1  LIG1        0.0000
      3 C3          2.7405    1.0000    1.0000 C.2     1  LIG1        0.0000
      4 C4          3.5725   -0.1398    1.0220 C.2     1  LIG1        0.0000
      5 C5          4.8424    0.3445    1.0139 C.2     1  LIG1        0.0000
      6 C6          6.0546   -0.4514    1.0316 C.ar    1  LIG1        0.0000
      7 C7          6.2046   -1.4972    0.1267 C.ar    1  LIG1        0.0000
      8 C8          7.3701   -2.2558    0.1512 C.ar    1  LIG1        0.0000
      9 C9          8.3708   -1.9653    1.0736 C.ar    1  LIG1        0.0000
     10 C10         8.2124   -0.9175    1.9747 C.ar    1  LIG1        0.0000
     11 C11         7.0494   -0.1541    1.9574 C.ar    1  LIG1        0.0000
     12 N12         4.7733    1.7021    0.9848 N.pl3   1  LIG1        0.0000
     13 C13         5.8671    2.5767    0.9659 C.ar    1  LIG1        0.0000
     14 C14         5.8233    3.7471    1.7168 C.ar    1  LIG1        0.0000
     15 C15         6.9051    4.6218    1.7055 C.ar    1  LIG1        0.0000
     16 C16         8.0215    4.3086    0.9372 C.ar    1  LIG1        0.0000
     17 F17         9.0591    5.1402    0.9194 F       1  LIG1        0.0000
     18 C18         8.0739    3.1408    0.1830 C.ar    1  LIG1        0.0000
     19 C19         6.9879    2.2724    0.2006 C.ar    1  LIG1        0.0000
     20 N20         3.5126    2.0574    0.9751 N.2     1  LIG1        0.0000
     21 H          -0.3877   -0.8857    1.0364 H       1  LIG1        0.0000
     22 H           0.9925   -1.2099    0.2261 H       1  LIG1        0.0000
     23 H           0.9925   -1.1784    1.8587 H       1  LIG1        0.0000
     24 H           3.2885   -1.0984    1.0398 H       1  LIG1        0.0000
     25 H           5.4824   -1.7013   -0.5342 H       1  LIG1        0.0000
     26 H           7.4891   -3.0102   -0.4943 H       1  LIG1        0.0000
     27 H           9.2076   -2.5125    1.0888 H       1  LIG1        0.0000
     28 H           8.9348   -0.7128    2.6352 H       1  LIG1        0.0000
     29 H           6.9299    0.5999    2.6033 H       1  LIG1        0.0000
     30 H           5.0141    3.9596    2.2646 H       1  LIG1        0.0000
     31 H           6.8804    5.4648    2.2429 H       1  LIG1        0.0000
     32 H           8.8828    2.9283   -0.3651 H       1  LIG1        0.0000
     33 H           7.0127    1.4294   -0.3368 H       1  LIG1        0.0000
@<TRIPOS>BOND
     1     1     2    1
     2     2     3    1
     3     3     4    1
     4     4     5    2
     5     5     6    1
     6     6     7   ar
     7     7     8   ar
     8     8     9   ar
     9     9    10   ar
    10    10    11   ar
    11    11     6   ar
    12     5    12    1
    13    12    13    1
    14    13    14   ar
    15    14    15   ar
    16    15    16   ar
    17    16    17    1
    18    16    18   ar
    19    18    19   ar
    20    19    13   ar
    21    12    20    1
    22    20     3    2
    23     1    21    1
    24     1    22    1
    25     1    23    1
    26     4    24    1
    27     7    25    1
    28     8    26    1
    29     9    27    1
    30    10    28    1
    31    11    29    1
    32    14    30    1
    33    15    31    1
    34    18    32    1
    35    19    33    1
