@<TRIPOS>MOLECULE

  22   23
SMALL
USER_CHARGES
@<TRIPOS>ATOM
   1 C1           1.0000     1.0000     1.0000 C.3          1    LIG   0.0000
   2 N2           1.8488     1.8488     1.8488 N.pl3        1    LIG   0.0000
   3 C3           1.7505     1.9743     3.2168 C.2          1    LIG   0.0000
   4 C4           2.6754     2.7870     3.8137 C.2          1    LIG   0.0000
   5 S5           3.6287     3.4267     2.5526 S.3          1    LIG   0.0000
   6 C6           2.8410     2.6059     1.2885 C.2          1    LIG   0.0000
   7 O7           3.1225     2.6930     0.1026 O.2          1    LIG   0.0000
   8 C8           2.9070     3.0924     5.2788 C.3          1    LIG   0.0000
   9 C9           1.6287     2.7103     6.0075 C.3          1    LIG   0.0000
  10 C10          1.2460     1.2876     5.6268 C.3          1    LIG   0.0000
  11 C11          0.7637     1.3184     4.1840 C.3          1    LIG   0.0000
  12 H            0.3328     0.5201     1.5697 H            1    LIG   0.0000
  13 H            0.5201     1.5697     0.3328 H            1    LIG   0.0000
  14 H            1.5697     0.3328     0.5201 H            1    LIG   0.0000
  15 H            3.0972     4.0663     5.4027 H            1    LIG   0.0000
  16 H            3.6761     2.5558     5.6260 H            1    LIG   0.0000
  17 H            0.8941     3.3363     5.7459 H            1    LIG   0.0000
  18 H            1.7770     2.7645     6.9949 H            1    LIG   0.0000
  19 H            2.0405     0.6860     5.7091 H            1    LIG   0.0000
  20 H            0.5152     0.9584     6.2248 H            1    LIG   0.0000
  21 H            0.6065     0.3775     3.8841 H            1    LIG   0.0000
  22 H           -0.0965     1.8272     4.1500 H            1    LIG   0.0000
@<TRIPOS>BOND
   1        1        2 1
   2        2        3 1
   3        3        4 2
   4        4        5 1
   5        5        6 1
   6        6        2 1
   7        6        7 2
   8        4        8 1
   9        8        9 1
  10        9       10 1
  11       10       11 1
  12       11        3 1
  13        1       12 1
  14        1       13 1
  15        1       14 1
  16        8       15 1
  17        8       16 1
  18        9       17 1
  19        9       18 1
  20       10       19 1
  21       10       20 1
  22       11       21 1
  23       11       22 1

@<TRIPOS>MOLECULE

  22   23
SMALL
USER_CHARGES
@<TRIPOS>ATOM
   1 C1           1.0000     1.0000     1.0000 C.3          1    LIG   0.0000
   2 N2           1.8505     1.8505     1.8505 N.pl3        1    LIG   0.0000
   3 C3           3.0451     1.4712     2.4097 C.2          1    LIG   0.0000
   4 C4           3.6514     2.3844     3.2260 C.2          1    LIG   0.0000
   5 S5           2.6698     3.7704     3.1603 S.3          1    LIG   0.0000
   6 C6           1.4791     3.1272     2.1312 C.2          1    LIG   0.0000
   7 O7           0.4804     3.7026     1.7317 O.2          1    LIG   0.0000
   8 C8           4.9358     2.2706     4.0229 C.3          1    LIG   0.0000
   9 C9           5.7131     1.1619     3.3416 C.3          1    LIG   0.0000
  10 C10          4.8119    -0.0618     3.3536 C.3          1    LIG   0.0000
  11 C11          3.7939     0.1614     2.2536 C.3          1    LIG   0.0000
  12 H            1.4234     0.0996     0.8997 H            1    LIG   0.0000
  13 H            0.0996     0.8997     1.4234 H            1    LIG   0.0000
  14 H            0.8997     1.4234     0.0996 H            1    LIG   0.0000
  15 H            4.7408     2.0317     4.9742 H            1    LIG   0.0000
  16 H            5.4468     3.1296     3.9931 H            1    LIG   0.0000
  17 H            6.5585     0.9741     3.8417 H            1    LIG   0.0000
  18 H            5.9328     1.4208     2.4010 H            1    LIG   0.0000
  19 H            5.3449    -0.8881     3.1717 H            1    LIG   0.0000
  20 H            4.3545    -0.1482     4.2386 H            1    LIG   0.0000
  21 H            4.2689     0.1669     1.3737 H            1    LIG   0.0000
  22 H            3.1334    -0.5892     2.2712 H            1    LIG   0.0000
@<TRIPOS>BOND
   1        1        2 1
   2        2        3 1
   3        3        4 2
   4        4        5 1
   5        5        6 1
   6        6        2 1
   7        6        7 2
   8        4        8 1
   9        8        9 1
  10        9       10 1
  11       10       11 1
  12       11        3 1
  13        1       12 1
  14        1       13 1
  15        1       14 1
  16        8       15 1
  17        8       16 1
  18        9       17 1
  19        9       18 1
  20       10       19 1
  21       10       20 1
  22       11       21 1
  23       11       22 1

@<TRIPOS>MOLECULE

  22   23
SMALL
USER_CHARGES
@<TRIPOS>ATOM
   1 C1           1.0000     1.0000     1.0000 C.3          1    LIG   0.0000
   2 N2           1.8473     1.8473     1.8473 N.pl3        1    LIG   0.0000
   3 C3           3.0385     1.4656     2.4146 C.2          1    LIG   0.0000
   4 C4           3.6457     2.4528     3.1268 C.2          1    LIG   0.0000
   5 S5           2.6543     3.8343     3.0655 S.3          1    LIG   0.0000
   6 C6           1.4562     3.1298     2.0957 C.2          1    LIG   0.0000
   7 O7           0.4415     3.6811     1.7024 O.2          1    LIG   0.0000
   8 C8           4.9705     2.3821     3.8532 C.3          1    LIG   0.0000
   9 C9           5.8703     1.7169     2.8261 C.3          1    LIG   0.0000
  10 C10          5.3481     0.3988     2.2623 C.3          1    LIG   0.0000
  11 C11          3.8442     0.1727     2.4047 C.3          1    LIG   0.0000
  12 H            1.4162     0.0951     0.9114 H            1    LIG   0.0000
  13 H            0.0951     0.9114     1.4162 H            1    LIG   0.0000
  14 H            0.9114     1.4162     0.0951 H            1    LIG   0.0000
  15 H            4.8989     1.8293     4.6834 H            1    LIG   0.0000
  16 H            5.3034     3.2952     4.0885 H            1    LIG   0.0000
  17 H            6.7548     1.5401     3.2578 H            1    LIG   0.0000
  18 H            5.9925     2.3527     2.0639 H            1    LIG   0.0000
  19 H            5.5732     0.3696     1.2884 H            1    LIG   0.0000
  20 H            5.8179    -0.3463     2.7355 H            1    LIG   0.0000
  21 H            3.5337    -0.3889     1.6377 H            1    LIG   0.0000
  22 H            3.6761    -0.3127     3.2627 H            1    LIG   0.0000
@<TRIPOS>BOND
   1        1        2 1
   2        2        3 1
   3        3        4 2
   4        4        5 1
   5        5        6 1
   6        6        2 1
   7        6        7 2
   8        4        8 1
   9        8        9 1
  10        9       10 1
  11       10       11 1
  12       11        3 1
  13        1       12 1
  14        1       13 1
  15        1       14 1
  16        8       15 1
  17        8       16 1
  18        9       17 1
  19        9       18 1
  20       10       19 1
  21       10       20 1
  22       11       21 1
  23       11       22 1

@<TRIPOS>MOLECULE

  22   23
SMALL
USER_CHARGES
@<TRIPOS>ATOM
   1 C1           1.0000     1.0000     1.0000 C.3          1    LIG   0.0000
   2 N2           1.8504     1.8504     1.8504 N.pl3        1    LIG   0.0000
   3 C3           3.2222     1.7831     1.9001 C.2          1    LIG   0.0000
   4 C4           3.8111     2.6458     2.7698 C.2          1    LIG   0.0000
   5 S5           2.5794     3.5410     3.5130 S.3          1    LIG   0.0000
   6 C6           1.3004     2.7699     2.6969 C.2          1    LIG   0.0000
   7 O7           0.1154     3.0052     2.8463 O.2          1    LIG   0.0000
   8 C8           5.2921     2.8103     3.0924 C.3          1    LIG   0.0000
   9 C9           5.7022     1.3581     3.2842 C.3          1    LIG   0.0000
  10 C10          5.2851     0.3908     2.1787 C.3          1    LIG   0.0000
  11 C11          4.2322     0.8924     1.1871 C.3          1    LIG   0.0000
  12 H            1.5766     0.3936     0.4524 H            1    LIG   0.0000
  13 H            0.3936     0.4524     1.5766 H            1    LIG   0.0000
  14 H            0.4524     1.5766     0.3936 H            1    LIG   0.0000
  15 H            5.4304     3.3453     3.9259 H            1    LIG   0.0000
  16 H            5.7888     3.2367     2.3364 H            1    LIG   0.0000
  17 H            5.2973     1.0367     4.1402 H            1    LIG   0.0000
  18 H            6.6992     1.3290     3.3556 H            1    LIG   0.0000
  19 H            6.1050     0.1556     1.6567 H            1    LIG   0.0000
  20 H            4.9216    -0.4313     2.6167 H            1    LIG   0.0000
  21 H            4.6821     1.4161     0.4638 H            1    LIG   0.0000
  22 H            3.7569     0.1095     0.7855 H            1    LIG   0.0000
@<TRIPOS>BOND
   1        1        2 1
   2        2        3 1
   3        3        4 2
   4        4        5 1
   5        5        6 1
   6        6        2 1
   7        6        7 2
   8        4        8 1
   9        8        9 1
  10        9       10 1
  11       10       11 1
  12       11        3 1
  13        1       12 1
  14        1       13 1
  15        1       14 1
  16        8       15 1
  17        8       16 1
  18        9       17 1
  19        9       18 1
  20       10       19 1
  21       10       20 1
  22       11       21 1
  23       11       22 1

