@<TRIPOS>MOLECULE
*****
 22 23 0 0 0
SMALL
USER_CHARGES

@<TRIPOS>ATOM
      1 C1          1.0000    1.0000    1.0000 C.3     1  LIG1        0.0000
      2 N2          1.8473    1.8473    1.8473 N.am    1  LIG1        0.0000
      3 C3          3.0385    1.4656    2.4146 C.2     1  LIG1        0.0000
      4 C4          3.6457    2.4528    3.1268 C.2     1  LIG1        0.0000
      5 S5          2.6543    3.8343    3.0655 S.3     1  LIG1        0.0000
      6 C6          1.4562    3.1298    2.0957 C.2     1  LIG1        0.0000
      7 O7          0.4415    3.6811    1.7024 O.2     1  LIG1        0.0000
      8 C8          4.9705    2.3821    3.8532 C.3     1  LIG1        0.0000
      9 C9          5.8703    1.7169    2.8261 C.3     1  LIG1        0.0000
     10 C10         5.3481    0.3988    2.2623 C.3     1  LIG1        0.0000
     11 C11         3.8442    0.1727    2.4047 C.3     1  LIG1        0.0000
     12 H           1.4162    0.0951    0.9114 H       1  LIG1        0.0000
     13 H           0.0951    0.9114    1.4162 H       1  LIG1        0.0000
     14 H           0.9114    1.4162    0.0951 H       1  LIG1        0.0000
     15 H           4.8989    1.8293    4.6834 H       1  LIG1        0.0000
     16 H           5.3034    3.2952    4.0885 H       1  LIG1        0.0000
     17 H           6.7548    1.5401    3.2578 H       1  LIG1        0.0000
     18 H           5.9925    2.3527    2.0639 H       1  LIG1        0.0000
     19 H           5.5732    0.3696    1.2884 H       1  LIG1        0.0000
     20 H           5.8179   -0.3463    2.7355 H       1  LIG1        0.0000
     21 H           3.5337   -0.3889    1.6377 H       1  LIG1        0.0000
     22 H           3.6761   -0.3127    3.2627 H       1  LIG1        0.0000
@<TRIPOS>BOND
     1     1     2    1
     2     2     3    1
     3     3     4    2
     4     4     5    1
     5     5     6    1
     6     6     2   am
     7     6     7    2
     8     4     8    1
     9     8     9    1
    10     9    10    1
    11    10    11    1
    12    11     3    1
    13     1    12    1
    14     1    13    1
    15     1    14    1
    16     8    15    1
    17     8    16    1
    18     9    17    1
    19     9    18    1
    20    10    19    1
    21    10    20    1
    22    11    21    1
    23    11    22    1
