@<TRIPOS>MOLECULE
*****
 22 23 0 0 0
SMALL
USER_CHARGES

@<TRIPOS>ATOM
      1 C1          1.0000    1.0000    1.0000 C.3     1  LIG1        0.0000
      2 N2          1.8505    1.8505    1.8505 N.am    1  LIG1        0.0000
      3 C3          3.0451    1.4712    2.4097 C.2     1  LIG1        0.0000
      4 C4          3.6514    2.3844    3.2260 C.2     1  LIG1        0.0000
      5 S5          2.6698    3.7704    3.1603 S.3     1  LIG1        0.0000
      6 C6          1.4791    3.1272    2.1312 C.2     1  LIG1        0.0000
      7 O7          0.4804    3.7026    1.7317 O.2     1  LIG1        0.0000
      8 C8          4.9358    2.2706    4.0229 C.3     1  LIG1        0.0000
      9 C9          5.7131    1.1619    3.3416 C.3     1  LIG1        0.0000
     10 C10         4.8119   -0.0618    3.3536 C.3     1  LIG1        0.0000
     11 C11         3.7939    0.1614    2.2536 C.3     1  LIG1        0.0000
     12 H           1.4234    0.0996    0.8997 H       1  LIG1        0.0000
     13 H           0.0996    0.8997    1.4234 H       1  LIG1        0.0000
     14 H           0.8997    1.4234    0.0996 H       1  LIG1        0.0000
     15 H           4.7408    2.0317    4.9742 H       1  LIG1        0.0000
     16 H           5.4468    3.1296    3.9931 H       1  LIG1        0.0000
     17 H           6.5585    0.9741    3.8417 H       1  LIG1        0.0000
     18 H           5.9328    1.4208    2.4010 H       1  LIG1        0.0000
     19 H           5.3449   -0.8881    3.1717 H       1  LIG1        0.0000
     20 H           4.3545   -0.1482    4.2386 H       1  LIG1        0.0000
     21 H           4.2689    0.1669    1.3737 H       1  LIG1        0.0000
     22 H           3.1334   -0.5892    2.2712 H       1  LIG1        0.0000
@<TRIPOS>BOND
     1     1     2    1
     2     2     3    1
     3     3     4    2
     4     4     5    1
     5     5     6    1
     6     6     2   am
     7     6     7    2
     8     4     8    1
     9     8     9    1
    10     9    10    1
    11    10    11    1
    12    11     3    1
    13     1    12    1
    14     1    13    1
    15     1    14    1
    16     8    15    1
    17     8    16    1
    18     9    17    1
    19     9    18    1
    20    10    19    1
    21    10    20    1
    22    11    21    1
    23    11    22    1
