@<TRIPOS>MOLECULE
*****
 22 23 0 0 0
SMALL
USER_CHARGES

@<TRIPOS>ATOM
      1 C1          1.0000    1.0000    1.0000 C.3     1  LIG1        0.0000
      2 N2          1.8488    1.8488    1.8488 N.am    1  LIG1        0.0000
      3 C3          1.7505    1.9743    3.2168 C.2     1  LIG1        0.0000
      4 C4          2.6754    2.7870    3.8137 C.2     1  LIG1        0.0000
      5 S5          3.6287    3.4267    2.5526 S.3     1  LIG1        0.0000
      6 C6          2.8410    2.6059    1.2885 C.2     1  LIG1        0.0000
      7 O7          3.1225    2.6930    0.1026 O.2     1  LIG1        0.0000
      8 C8          2.9070    3.0924    5.2788 C.3     1  LIG1        0.0000
      9 C9          1.6287    2.7103    6.0075 C.3     1  LIG1        0.0000
     10 C10         1.2460    1.2876    5.6268 C.3     1  LIG1        0.0000
     11 C11         0.7637    1.3184    4.1840 C.3     1  LIG1        0.0000
     12 H           0.3328    0.5201    1.5697 H       1  LIG1        0.0000
     13 H           0.5201    1.5697    0.3328 H       1  LIG1        0.0000
     14 H           1.5697    0.3328    0.5201 H       1  LIG1        0.0000
     15 H           3.0972    4.0663    5.4027 H       1  LIG1        0.0000
     16 H           3.6761    2.5558    5.6260 H       1  LIG1        0.0000
     17 H           0.8941    3.3363    5.7459 H       1  LIG1        0.0000
     18 H           1.7770    2.7645    6.9949 H       1  LIG1        0.0000
     19 H           2.0405    0.6860    5.7091 H       1  LIG1        0.0000
     20 H           0.5152    0.9584    6.2248 H       1  LIG1        0.0000
     21 H           0.6065    0.3775    3.8841 H       1  LIG1        0.0000
     22 H          -0.0965    1.8272    4.1500 H       1  LIG1        0.0000
@<TRIPOS>BOND
     1     1     2    1
     2     2     3    1
     3     3     4    2
     4     4     5    1
     5     5     6    1
     6     6     2   am
     7     6     7    2
     8     4     8    1
     9     8     9    1
    10     9    10    1
    11    10    11    1
    12    11     3    1
    13     1    12    1
    14     1    13    1
    15     1    14    1
    16     8    15    1
    17     8    16    1
    18     9    17    1
    19     9    18    1
    20    10    19    1
    21    10    20    1
    22    11    21    1
    23    11    22    1
