@<TRIPOS>MOLECULE
*****
 22 23 0 0 0
SMALL
USER_CHARGES

@<TRIPOS>ATOM
      1 C1          1.0000    1.0000    1.0000 C.3     1  LIG1        0.0000
      2 N2          1.8504    1.8504    1.8504 N.am    1  LIG1        0.0000
      3 C3          3.2222    1.7831    1.9001 C.2     1  LIG1        0.0000
      4 C4          3.8111    2.6458    2.7698 C.2     1  LIG1        0.0000
      5 S5          2.5794    3.5410    3.5130 S.3     1  LIG1        0.0000
      6 C6          1.3004    2.7699    2.6969 C.2     1  LIG1        0.0000
      7 O7          0.1154    3.0052    2.8463 O.2     1  LIG1        0.0000
      8 C8          5.2921    2.8103    3.0924 C.3     1  LIG1        0.0000
      9 C9          5.7022    1.3581    3.2842 C.3     1  LIG1        0.0000
     10 C10         5.2851    0.3908    2.1787 C.3     1  LIG1        0.0000
     11 C11         4.2322    0.8924    1.1871 C.3     1  LIG1        0.0000
     12 H           1.5766    0.3936    0.4524 H       1  LIG1        0.0000
     13 H           0.3936    0.4524    1.5766 H       1  LIG1        0.0000
     14 H           0.4524    1.5766    0.3936 H       1  LIG1        0.0000
     15 H           5.4304    3.3453    3.9259 H       1  LIG1        0.0000
     16 H           5.7888    3.2367    2.3364 H       1  LIG1        0.0000
     17 H           5.2973    1.0367    4.1402 H       1  LIG1        0.0000
     18 H           6.6992    1.3290    3.3556 H       1  LIG1        0.0000
     19 H           6.1050    0.1556    1.6567 H       1  LIG1        0.0000
     20 H           4.9216   -0.4313    2.6167 H       1  LIG1        0.0000
     21 H           4.6821    1.4161    0.4638 H       1  LIG1        0.0000
     22 H           3.7569    0.1095    0.7855 H       1  LIG1        0.0000
@<TRIPOS>BOND
     1     1     2    1
     2     2     3    1
     3     3     4    2
     4     4     5    1
     5     5     6    1
     6     6     2   am
     7     6     7    2
     8     4     8    1
     9     8     9    1
    10     9    10    1
    11    10    11    1
    12    11     3    1
    13     1    12    1
    14     1    13    1
    15     1    14    1
    16     8    15    1
    17     8    16    1
    18     9    17    1
    19     9    18    1
    20    10    19    1
    21    10    20    1
    22    11    21    1
    23    11    22    1
