@<TRIPOS>MOLECULE

  36   37
SMALL
USER_CHARGES
@<TRIPOS>ATOM
   1 C1           3.7391     3.0713    -1.2579 C.3          1    LIG   0.0000
   2 C2           3.6831     2.1886    -0.0218 C.3          1    LIG   0.0000
   3 C3           3.7640     3.0556     1.2240 C.3          1    LIG   0.0000
   4 C4           2.3771     1.4101    -0.0136 C.ar         1    LIG   0.0000
   5 C5           2.4071     0.0194    -0.0224 C.ar         1    LIG   0.0000
   6 C6           1.2077    -0.6850    -0.0143 C.ar         1    LIG   0.0000
   7 C7          -0.0114    -0.0151     0.0024 C.ar         1    LIG   0.0000
   8 C8          -0.0177     1.3760     0.0110 C.ar         1    LIG   0.0000
   9 C9          -1.3432     2.1201     0.0262 C.3          1    LIG   0.0000
  10 O10         -2.2659     1.4608    -0.8284 O.3          1    LIG   0.0000
  11 C11         -1.8936     2.1455     1.4425 C.2          1    LIG   0.0000
  12 C12         -3.1953     2.3663     1.7736 C.2          1    LIG   0.0000
  13 C13         -3.2557     2.3022     3.1839 C.2          1    LIG   0.0000
  14 C14         -1.9999     2.0444     3.6531 C.2          1    LIG   0.0000
  15 N15         -1.1674     1.9496     2.5767 N.pl3        1    LIG   0.0000
  16 C16          0.2768     1.6810     2.6367 C.3          1    LIG   0.0000
  17 C17          1.1694     2.1002     0.0028 C.ar         1    LIG   0.0000
  18 H           -1.2032     3.0571    -0.2939 H            1    LIG   0.0000
  19 H            4.5981     3.5833    -1.2633 H            1    LIG   0.0000
  20 H            3.6859     2.5009    -2.0776 H            1    LIG   0.0000
  21 H            2.9702     3.7105    -1.2462 H            1    LIG   0.0000
  22 H            4.4521     1.5494    -0.0335 H            1    LIG   0.0000
  23 H            4.6230     3.5676     1.2187 H            1    LIG   0.0000
  24 H            2.9950     3.6948     1.2358 H            1    LIG   0.0000
  25 H            3.7272     2.4749     2.0373 H            1    LIG   0.0000
  26 H            3.2803    -0.4680    -0.0343 H            1    LIG   0.0000
  27 H            1.2220    -1.6849    -0.0206 H            1    LIG   0.0000
  28 H           -0.8709    -0.5263     0.0083 H            1    LIG   0.0000
  29 H           -3.1379     1.9503    -0.8184 H            1    LIG   0.0000
  30 H           -3.9547     2.5388     1.1462 H            1    LIG   0.0000
  31 H           -4.0765     2.4245     3.7419 H            1    LIG   0.0000
  32 H           -1.7376     1.9434     4.6128 H            1    LIG   0.0000
  33 H            0.5571     1.5769     3.5910 H            1    LIG   0.0000
  34 H            0.4804     0.8398     2.1358 H            1    LIG   0.0000
  35 H            0.7751     2.4435     2.2242 H            1    LIG   0.0000
  36 H            1.1551     3.1001     0.0087 H            1    LIG   0.0000
@<TRIPOS>BOND
   1        1        2 1
   2        2        3 1
   3        2        4 1
   4        4        5 ar
   5        5        6 ar
   6        6        7 ar
   7        7        8 ar
   8        8        9 1
   9        9       10 1
  10        9       11 1
  11       11       12 2
  12       12       13 1
  13       13       14 2
  14       14       15 1
  15       15       11 1
  16       15       16 1
  17        8       17 ar
  18       17        4 ar
  19        9       18 1
  20        1       19 1
  21        1       20 1
  22        1       21 1
  23        2       22 1
  24        3       23 1
  25        3       24 1
  26        3       25 1
  27        5       26 1
  28        6       27 1
  29        7       28 1
  30       10       29 1
  31       12       30 1
  32       13       31 1
  33       14       32 1
  34       16       33 1
  35       16       34 1
  36       16       35 1
  37       17       36 1

@<TRIPOS>MOLECULE

  36   37
SMALL
USER_CHARGES
@<TRIPOS>ATOM
   1 C1           3.7391     3.0713    -1.2579 C.3          1    LIG   0.0000
   2 C2           3.6831     2.1886    -0.0218 C.3          1    LIG   0.0000
   3 C3           3.7640     3.0556     1.2240 C.3          1    LIG   0.0000
   4 C4           2.3771     1.4101    -0.0136 C.ar         1    LIG   0.0000
   5 C5           2.4071     0.0194    -0.0224 C.ar         1    LIG   0.0000
   6 C6           1.2077    -0.6850    -0.0143 C.ar         1    LIG   0.0000
   7 C7          -0.0114    -0.0151     0.0024 C.ar         1    LIG   0.0000
   8 C8          -0.0177     1.3760     0.0110 C.ar         1    LIG   0.0000
   9 C9          -1.3432     2.1201     0.0262 C.3          1    LIG   0.0000
  10 O10         -2.2659     1.4608    -0.8284 O.3          1    LIG   0.0000
  11 C11         -1.8936     2.1455     1.4425 C.2          1    LIG   0.0000
  12 C12         -1.2098     1.7643     2.5560 C.2          1    LIG   0.0000
  13 C13         -2.0957     1.9507     3.6410 C.2          1    LIG   0.0000
  14 C14         -3.2737     2.4365     3.1511 C.2          1    LIG   0.0000
  15 N15         -3.1422     2.5535     1.7984 N.pl3        1    LIG   0.0000
  16 C16         -4.1818     3.0399     0.8796 C.3          1    LIG   0.0000
  17 C17          1.1694     2.1002     0.0028 C.ar         1    LIG   0.0000
  18 H           -1.2032     3.0571    -0.2939 H            1    LIG   0.0000
  19 H            4.5981     3.5833    -1.2633 H            1    LIG   0.0000
  20 H            3.6859     2.5009    -2.0776 H            1    LIG   0.0000
  21 H            2.9702     3.7105    -1.2462 H            1    LIG   0.0000
  22 H            4.4521     1.5494    -0.0335 H            1    LIG   0.0000
  23 H            4.6230     3.5676     1.2187 H            1    LIG   0.0000
  24 H            2.9950     3.6948     1.2358 H            1    LIG   0.0000
  25 H            3.7272     2.4749     2.0373 H            1    LIG   0.0000
  26 H            3.2803    -0.4680    -0.0343 H            1    LIG   0.0000
  27 H            1.2220    -1.6849    -0.0206 H            1    LIG   0.0000
  28 H           -0.8709    -0.5263     0.0083 H            1    LIG   0.0000
  29 H           -3.1379     1.9503    -0.8184 H            1    LIG   0.0000
  30 H           -0.2712     1.4218     2.5978 H            1    LIG   0.0000
  31 H           -1.8945     1.7597     4.6018 H            1    LIG   0.0000
  32 H           -4.0863     2.6654     3.6871 H            1    LIG   0.0000
  33 H           -5.0033     3.2739     1.3996 H            1    LIG   0.0000
  34 H           -3.8489     3.8514     0.3992 H            1    LIG   0.0000
  35 H           -4.4002     2.3253     0.2150 H            1    LIG   0.0000
  36 H            1.1551     3.1001     0.0087 H            1    LIG   0.0000
@<TRIPOS>BOND
   1        1        2 1
   2        2        3 1
   3        2        4 1
   4        4        5 ar
   5        5        6 ar
   6        6        7 ar
   7        7        8 ar
   8        8        9 1
   9        9       10 1
  10        9       11 1
  11       11       12 2
  12       12       13 1
  13       13       14 2
  14       14       15 1
  15       15       11 1
  16       15       16 1
  17        8       17 ar
  18       17        4 ar
  19        9       18 1
  20        1       19 1
  21        1       20 1
  22        1       21 1
  23        2       22 1
  24        3       23 1
  25        3       24 1
  26        3       25 1
  27        5       26 1
  28        6       27 1
  29        7       28 1
  30       10       29 1
  31       12       30 1
  32       13       31 1
  33       14       32 1
  34       16       33 1
  35       16       34 1
  36       16       35 1
  37       17       36 1

@<TRIPOS>MOLECULE

  36   37
SMALL
USER_CHARGES
@<TRIPOS>ATOM
   1 C1           3.3848     3.6789    -0.0094 C.3          1    LIG   0.0000
   2 C2           3.6831     2.1886    -0.0218 C.3          1    LIG   0.0000
   3 C3           4.4976     1.8246     1.2089 C.3          1    LIG   0.0000
   4 C4           2.3771     1.4101    -0.0136 C.ar         1    LIG   0.0000
   5 C5           2.4071     0.0194    -0.0224 C.ar         1    LIG   0.0000
   6 C6           1.2077    -0.6850    -0.0143 C.ar         1    LIG   0.0000
   7 C7          -0.0114    -0.0151     0.0024 C.ar         1    LIG   0.0000
   8 C8          -0.0177     1.3760     0.0110 C.ar         1    LIG   0.0000
   9 C9          -1.3432     2.1201     0.0262 C.3          1    LIG   0.0000
  10 O10         -2.2659     1.4608    -0.8284 O.3          1    LIG   0.0000
  11 C11         -1.8936     2.1455     1.4425 C.2          1    LIG   0.0000
  12 C12         -2.5514     1.1181     2.0463 C.2          1    LIG   0.0000
  13 C13         -2.8794     1.5730     3.3432 C.2          1    LIG   0.0000
  14 C14         -2.4105     2.8479     3.4791 C.2          1    LIG   0.0000
  15 N15         -1.8057     3.1935     2.3063 N.pl3        1    LIG   0.0000
  16 C16         -1.1662     4.4872     2.0255 C.3          1    LIG   0.0000
  17 C17          1.1694     2.1002     0.0028 C.ar         1    LIG   0.0000
  18 H           -1.2032     3.0571    -0.2939 H            1    LIG   0.0000
  19 H            4.2437     4.1909    -0.0147 H            1    LIG   0.0000
  20 H            2.8489     3.9184    -0.8190 H            1    LIG   0.0000
  21 H            2.8653     3.9080     0.8138 H            1    LIG   0.0000
  22 H            4.2026     1.9595    -0.8450 H            1    LIG   0.0000
  23 H            5.3566     2.3366     1.2035 H            1    LIG   0.0000
  24 H            3.9781     2.0537     2.0321 H            1    LIG   0.0000
  25 H            4.6939     0.8441     1.2007 H            1    LIG   0.0000
  26 H            3.2803    -0.4680    -0.0343 H            1    LIG   0.0000
  27 H            1.2220    -1.6849    -0.0206 H            1    LIG   0.0000
  28 H           -0.8709    -0.5263     0.0083 H            1    LIG   0.0000
  29 H           -3.1379     1.9503    -0.8184 H            1    LIG   0.0000
  30 H           -2.7601     0.2231     1.6520 H            1    LIG   0.0000
  31 H           -3.3702     1.0513     4.0410 H            1    LIG   0.0000
  32 H           -2.4951     3.4244     4.2918 H            1    LIG   0.0000
  33 H           -1.2416     5.0776     2.8291 H            1    LIG   0.0000
  34 H           -0.2010     4.3417     1.8081 H            1    LIG   0.0000
  35 H           -1.6211     4.9222     1.2484 H            1    LIG   0.0000
  36 H            1.1551     3.1001     0.0087 H            1    LIG   0.0000
@<TRIPOS>BOND
   1        1        2 1
   2        2        3 1
   3        2        4 1
   4        4        5 ar
   5        5        6 ar
   6        6        7 ar
   7        7        8 ar
   8        8        9 1
   9        9       10 1
  10        9       11 1
  11       11       12 2
  12       12       13 1
  13       13       14 2
  14       14       15 1
  15       15       11 1
  16       15       16 1
  17        8       17 ar
  18       17        4 ar
  19        9       18 1
  20        1       19 1
  21        1       20 1
  22        1       21 1
  23        2       22 1
  24        3       23 1
  25        3       24 1
  26        3       25 1
  27        5       26 1
  28        6       27 1
  29        7       28 1
  30       10       29 1
  31       12       30 1
  32       13       31 1
  33       14       32 1
  34       16       33 1
  35       16       34 1
  36       16       35 1
  37       17       36 1

@<TRIPOS>MOLECULE

  36   37
SMALL
USER_CHARGES
@<TRIPOS>ATOM
   1 C1           3.7391     3.0713    -1.2579 C.3          1    LIG   0.0000
   2 C2           3.6831     2.1886    -0.0218 C.3          1    LIG   0.0000
   3 C3           3.7640     3.0556     1.2240 C.3          1    LIG   0.0000
   4 C4           2.3771     1.4101    -0.0136 C.ar         1    LIG   0.0000
   5 C5           2.4071     0.0194    -0.0224 C.ar         1    LIG   0.0000
   6 C6           1.2077    -0.6850    -0.0143 C.ar         1    LIG   0.0000
   7 C7          -0.0114    -0.0151     0.0024 C.ar         1    LIG   0.0000
   8 C8          -0.0177     1.3760     0.0110 C.ar         1    LIG   0.0000
   9 C9          -1.3432     2.1201     0.0262 C.3          1    LIG   0.0000
  10 O10         -2.4112     1.1843     0.0324 O.3          1    LIG   0.0000
  11 C11         -1.4228     2.9878     1.2712 C.2          1    LIG   0.0000
  12 C12         -0.5568     3.9902     1.5845 C.2          1    LIG   0.0000
  13 C13         -1.0038     4.5220     2.8151 C.2          1    LIG   0.0000
  14 C14         -2.1167     3.8308     3.1990 C.2          1    LIG   0.0000
  15 N15         -2.3683     2.8888     2.2450 N.pl3        1    LIG   0.0000
  16 C16         -3.4790     1.9258     2.2695 C.3          1    LIG   0.0000
  17 C17          1.1694     2.1002     0.0028 C.ar         1    LIG   0.0000
  18 H           -1.4107     2.6975    -0.7874 H            1    LIG   0.0000
  19 H            4.5981     3.5833    -1.2633 H            1    LIG   0.0000
  20 H            3.6859     2.5009    -2.0776 H            1    LIG   0.0000
  21 H            2.9702     3.7105    -1.2462 H            1    LIG   0.0000
  22 H            4.4521     1.5494    -0.0335 H            1    LIG   0.0000
  23 H            4.6230     3.5676     1.2187 H            1    LIG   0.0000
  24 H            2.9950     3.6948     1.2358 H            1    LIG   0.0000
  25 H            3.7272     2.4749     2.0373 H            1    LIG   0.0000
  26 H            3.2803    -0.4680    -0.0343 H            1    LIG   0.0000
  27 H            1.2220    -1.6849    -0.0206 H            1    LIG   0.0000
  28 H           -0.8709    -0.5263     0.0083 H            1    LIG   0.0000
  29 H           -3.2832     1.6738     0.0424 H            1    LIG   0.0000
  30 H            0.2350     4.2895     1.0521 H            1    LIG   0.0000
  31 H           -0.5785     5.2746     3.3177 H            1    LIG   0.0000
  32 H           -2.6511     3.9869     4.0297 H            1    LIG   0.0000
  33 H           -4.0250     2.0677     3.0952 H            1    LIG   0.0000
  34 H           -4.0541     2.0597     1.4625 H            1    LIG   0.0000
  35 H           -3.1133     0.9951     2.2676 H            1    LIG   0.0000
  36 H            1.1551     3.1001     0.0087 H            1    LIG   0.0000
@<TRIPOS>BOND
   1        1        2 1
   2        2        3 1
   3        2        4 1
   4        4        5 ar
   5        5        6 ar
   6        6        7 ar
   7        7        8 ar
   8        8        9 1
   9        9       10 1
  10        9       11 1
  11       11       12 2
  12       12       13 1
  13       13       14 2
  14       14       15 1
  15       15       11 1
  16       15       16 1
  17        8       17 ar
  18       17        4 ar
  19        9       18 1
  20        1       19 1
  21        1       20 1
  22        1       21 1
  23        2       22 1
  24        3       23 1
  25        3       24 1
  26        3       25 1
  27        5       26 1
  28        6       27 1
  29        7       28 1
  30       10       29 1
  31       12       30 1
  32       13       31 1
  33       14       32 1
  34       16       33 1
  35       16       34 1
  36       16       35 1
  37       17       36 1

@<TRIPOS>MOLECULE

  36   37
SMALL
USER_CHARGES
@<TRIPOS>ATOM
   1 C1           4.7465     1.3865    -0.7541 C.3          1    LIG   0.0000
   2 C2           3.6831     2.1886    -0.0218 C.3          1    LIG   0.0000
   3 C3           3.4759     3.5186    -0.7279 C.3          1    LIG   0.0000
   4 C4           2.3771     1.4101    -0.0136 C.ar         1    LIG   0.0000
   5 C5           2.4071     0.0194    -0.0224 C.ar         1    LIG   0.0000
   6 C6           1.2077    -0.6850    -0.0143 C.ar         1    LIG   0.0000
   7 C7          -0.0114    -0.0151     0.0024 C.ar         1    LIG   0.0000
   8 C8          -0.0177     1.3760     0.0110 C.ar         1    LIG   0.0000
   9 C9          -1.3432     2.1201     0.0262 C.3          1    LIG   0.0000
  10 O10         -1.8819     2.1542    -1.2872 O.3          1    LIG   0.0000
  11 C11         -2.3136     1.4073     0.9534 C.2          1    LIG   0.0000
  12 C12         -1.9852     0.3984     1.8061 C.2          1    LIG   0.0000
  13 C13         -3.1824     0.0388     2.4651 C.2          1    LIG   0.0000
  14 C14         -4.1845     0.8375     1.9944 C.2          1    LIG   0.0000
  15 N15         -3.6430     1.6764     1.0650 N.pl3        1    LIG   0.0000
  16 C16         -4.3788     2.7006     0.3093 C.3          1    LIG   0.0000
  17 C17          1.1694     2.1002     0.0028 C.ar         1    LIG   0.0000
  18 H           -1.1972     3.0545     0.3510 H            1    LIG   0.0000
  19 H            5.6055     1.8984    -0.7595 H            1    LIG   0.0000
  20 H            4.8829     0.5115    -0.2896 H            1    LIG   0.0000
  21 H            4.4507     1.2218    -1.6951 H            1    LIG   0.0000
  22 H            3.9789     2.3533     0.9192 H            1    LIG   0.0000
  23 H            4.3348     4.0305    -0.7333 H            1    LIG   0.0000
  24 H            3.1801     3.3539    -1.6688 H            1    LIG   0.0000
  25 H            2.7763     4.0463    -0.2461 H            1    LIG   0.0000
  26 H            3.2803    -0.4680    -0.0343 H            1    LIG   0.0000
  27 H            1.2220    -1.6849    -0.0206 H            1    LIG   0.0000
  28 H           -0.8709    -0.5263     0.0083 H            1    LIG   0.0000
  29 H           -2.7539     2.6437    -1.2772 H            1    LIG   0.0000
  30 H           -1.0804    -0.0063     1.9391 H            1    LIG   0.0000
  31 H           -3.2788    -0.6769     3.1567 H            1    LIG   0.0000
  32 H           -5.1426     0.8122     2.2795 H            1    LIG   0.0000
  33 H           -5.3407     2.6894     0.5823 H            1    LIG   0.0000
  34 H           -3.9883     3.6010     0.5011 H            1    LIG   0.0000
  35 H           -4.3077     2.5081    -0.6694 H            1    LIG   0.0000
  36 H            1.1551     3.1001     0.0087 H            1    LIG   0.0000
@<TRIPOS>BOND
   1        1        2 1
   2        2        3 1
   3        2        4 1
   4        4        5 ar
   5        5        6 ar
   6        6        7 ar
   7        7        8 ar
   8        8        9 1
   9        9       10 1
  10        9       11 1
  11       11       12 2
  12       12       13 1
  13       13       14 2
  14       14       15 1
  15       15       11 1
  16       15       16 1
  17        8       17 ar
  18       17        4 ar
  19        9       18 1
  20        1       19 1
  21        1       20 1
  22        1       21 1
  23        2       22 1
  24        3       23 1
  25        3       24 1
  26        3       25 1
  27        5       26 1
  28        6       27 1
  29        7       28 1
  30       10       29 1
  31       12       30 1
  32       13       31 1
  33       14       32 1
  34       16       33 1
  35       16       34 1
  36       16       35 1
  37       17       36 1

@<TRIPOS>MOLECULE

  36   37
SMALL
USER_CHARGES
@<TRIPOS>ATOM
   1 C1           4.7465     1.3865    -0.7541 C.3          1    LIG   0.0000
   2 C2           3.6831     2.1886    -0.0218 C.3          1    LIG   0.0000
   3 C3           3.4759     3.5186    -0.7279 C.3          1    LIG   0.0000
   4 C4           2.3771     1.4101    -0.0136 C.ar         1    LIG   0.0000
   5 C5           2.4071     0.0194    -0.0224 C.ar         1    LIG   0.0000
   6 C6           1.2077    -0.6850    -0.0143 C.ar         1    LIG   0.0000
   7 C7          -0.0114    -0.0151     0.0024 C.ar         1    LIG   0.0000
   8 C8          -0.0177     1.3760     0.0110 C.ar         1    LIG   0.0000
   9 C9          -1.3432     2.1201     0.0262 C.3          1    LIG   0.0000
  10 O10         -1.8819     2.1542    -1.2872 O.3          1    LIG   0.0000
  11 C11         -2.3136     1.4073     0.9534 C.2          1    LIG   0.0000
  12 C12         -3.0297     0.2948     0.6333 C.2          1    LIG   0.0000
  13 C13         -3.7926    -0.0218     1.7799 C.2          1    LIG   0.0000
  14 C14         -3.5120     0.9005     2.7466 C.2          1    LIG   0.0000
  15 N15         -2.6021     1.7763     2.2312 N.pl3        1    LIG   0.0000
  16 C16         -2.0304     2.9289     2.9426 C.3          1    LIG   0.0000
  17 C17          1.1694     2.1002     0.0028 C.ar         1    LIG   0.0000
  18 H           -1.1972     3.0545     0.3510 H            1    LIG   0.0000
  19 H            5.6055     1.8984    -0.7595 H            1    LIG   0.0000
  20 H            4.8829     0.5115    -0.2896 H            1    LIG   0.0000
  21 H            4.4507     1.2218    -1.6951 H            1    LIG   0.0000
  22 H            3.9789     2.3533     0.9192 H            1    LIG   0.0000
  23 H            4.3348     4.0305    -0.7333 H            1    LIG   0.0000
  24 H            3.1801     3.3539    -1.6688 H            1    LIG   0.0000
  25 H            2.7763     4.0463    -0.2461 H            1    LIG   0.0000
  26 H            3.2803    -0.4680    -0.0343 H            1    LIG   0.0000
  27 H            1.2220    -1.6849    -0.0206 H            1    LIG   0.0000
  28 H           -0.8709    -0.5263     0.0083 H            1    LIG   0.0000
  29 H           -2.7539     2.6437    -1.2772 H            1    LIG   0.0000
  30 H           -3.0183    -0.1983    -0.2366 H            1    LIG   0.0000
  31 H           -4.4281    -0.7888     1.8679 H            1    LIG   0.0000
  32 H           -3.9031     0.9289     3.6665 H            1    LIG   0.0000
  33 H           -2.4111     2.9729     3.8662 H            1    LIG   0.0000
  34 H           -1.0369     2.8284     2.9960 H            1    LIG   0.0000
  35 H           -2.2543     3.7695     2.4494 H            1    LIG   0.0000
  36 H            1.1551     3.1001     0.0087 H            1    LIG   0.0000
@<TRIPOS>BOND
   1        1        2 1
   2        2        3 1
   3        2        4 1
   4        4        5 ar
   5        5        6 ar
   6        6        7 ar
   7        7        8 ar
   8        8        9 1
   9        9       10 1
  10        9       11 1
  11       11       12 2
  12       12       13 1
  13       13       14 2
  14       14       15 1
  15       15       11 1
  16       15       16 1
  17        8       17 ar
  18       17        4 ar
  19        9       18 1
  20        1       19 1
  21        1       20 1
  22        1       21 1
  23        2       22 1
  24        3       23 1
  25        3       24 1
  26        3       25 1
  27        5       26 1
  28        6       27 1
  29        7       28 1
  30       10       29 1
  31       12       30 1
  32       13       31 1
  33       14       32 1
  34       16       33 1
  35       16       34 1
  36       16       35 1
  37       17       36 1

@<TRIPOS>MOLECULE

  36   37
SMALL
USER_CHARGES
@<TRIPOS>ATOM
   1 C1           3.7391     3.0713    -1.2579 C.3          1    LIG   0.0000
   2 C2           3.6831     2.1886    -0.0218 C.3          1    LIG   0.0000
   3 C3           3.7640     3.0556     1.2240 C.3          1    LIG   0.0000
   4 C4           2.3771     1.4101    -0.0136 C.ar         1    LIG   0.0000
   5 C5           2.4071     0.0194    -0.0224 C.ar         1    LIG   0.0000
   6 C6           1.2077    -0.6850    -0.0143 C.ar         1    LIG   0.0000
   7 C7          -0.0114    -0.0151     0.0024 C.ar         1    LIG   0.0000
   8 C8          -0.0177     1.3760     0.0110 C.ar         1    LIG   0.0000
   9 C9          -1.3432     2.1201     0.0262 C.3          1    LIG   0.0000
  10 O10         -1.3252     3.0981     1.0555 O.3          1    LIG   0.0000
  11 C11         -1.5575     2.8006    -1.3156 C.2          1    LIG   0.0000
  12 C12         -1.7061     4.1411    -1.4996 C.2          1    LIG   0.0000
  13 C13         -1.8785     4.3276    -2.8896 C.2          1    LIG   0.0000
  14 C14         -1.8260     3.1045    -3.4937 C.2          1    LIG   0.0000
  15 N15         -1.6287     2.1702    -2.5196 N.pl3        1    LIG   0.0000
  16 C16         -1.5136     0.7210    -2.7388 C.3          1    LIG   0.0000
  17 C17          1.1694     2.1002     0.0028 C.ar         1    LIG   0.0000
  18 H           -2.0868     1.4729     0.1943 H            1    LIG   0.0000
  19 H            4.5981     3.5833    -1.2633 H            1    LIG   0.0000
  20 H            3.6859     2.5009    -2.0776 H            1    LIG   0.0000
  21 H            2.9702     3.7105    -1.2462 H            1    LIG   0.0000
  22 H            4.4521     1.5494    -0.0335 H            1    LIG   0.0000
  23 H            4.6230     3.5676     1.2187 H            1    LIG   0.0000
  24 H            2.9950     3.6948     1.2358 H            1    LIG   0.0000
  25 H            3.7272     2.4749     2.0373 H            1    LIG   0.0000
  26 H            3.2803    -0.4680    -0.0343 H            1    LIG   0.0000
  27 H            1.2220    -1.6849    -0.0206 H            1    LIG   0.0000
  28 H           -0.8709    -0.5263     0.0083 H            1    LIG   0.0000
  29 H           -2.1972     3.5876     1.0655 H            1    LIG   0.0000
  30 H           -1.6955     4.8500    -0.7943 H            1    LIG   0.0000
  31 H           -2.0153     5.2041    -3.3512 H            1    LIG   0.0000
  32 H           -1.9160     2.9257    -4.4734 H            1    LIG   0.0000
  33 H           -1.6015     0.5236    -3.7152 H            1    LIG   0.0000
  34 H           -0.6226     0.4044    -2.4135 H            1    LIG   0.0000
  35 H           -2.2386     0.2493    -2.2368 H            1    LIG   0.0000
  36 H            1.1551     3.1001     0.0087 H            1    LIG   0.0000
@<TRIPOS>BOND
   1        1        2 1
   2        2        3 1
   3        2        4 1
   4        4        5 ar
   5        5        6 ar
   6        6        7 ar
   7        7        8 ar
   8        8        9 1
   9        9       10 1
  10        9       11 1
  11       11       12 2
  12       12       13 1
  13       13       14 2
  14       14       15 1
  15       15       11 1
  16       15       16 1
  17        8       17 ar
  18       17        4 ar
  19        9       18 1
  20        1       19 1
  21        1       20 1
  22        1       21 1
  23        2       22 1
  24        3       23 1
  25        3       24 1
  26        3       25 1
  27        5       26 1
  28        6       27 1
  29        7       28 1
  30       10       29 1
  31       12       30 1
  32       13       31 1
  33       14       32 1
  34       16       33 1
  35       16       34 1
  36       16       35 1
  37       17       36 1

@<TRIPOS>MOLECULE

  36   37
SMALL
USER_CHARGES
@<TRIPOS>ATOM
   1 C1           3.4902     3.5095     0.7051 C.3          1    LIG   0.0000
   2 C2           3.6831     2.1886    -0.0218 C.3          1    LIG   0.0000
   3 C3           4.7609     1.3774     0.6789 C.3          1    LIG   0.0000
   4 C4           2.3771     1.4101    -0.0136 C.ar         1    LIG   0.0000
   5 C5           2.4071     0.0194    -0.0224 C.ar         1    LIG   0.0000
   6 C6           1.2077    -0.6850    -0.0143 C.ar         1    LIG   0.0000
   7 C7          -0.0114    -0.0151     0.0024 C.ar         1    LIG   0.0000
   8 C8          -0.0177     1.3760     0.0110 C.ar         1    LIG   0.0000
   9 C9          -1.3432     2.1201     0.0262 C.3          1    LIG   0.0000
  10 O10         -1.1006     3.5192     0.0295 O.3          1    LIG   0.0000
  11 C11         -2.1471     1.7482    -1.2087 C.2          1    LIG   0.0000
  12 C12         -1.9579     2.2674    -2.4527 C.2          1    LIG   0.0000
  13 C13         -2.9151     1.6450    -3.2852 C.2          1    LIG   0.0000
  14 C14         -3.6422     0.7763    -2.5234 C.2          1    LIG   0.0000
  15 N15         -3.1646     0.8453    -1.2475 N.pl3        1    LIG   0.0000
  16 C16         -3.6699     0.0704    -0.1048 C.3          1    LIG   0.0000
  17 C17          1.1694     2.1002     0.0028 C.ar         1    LIG   0.0000
  18 H           -1.8570     1.8689     0.8465 H            1    LIG   0.0000
  19 H            4.3492     4.0215     0.6997 H            1    LIG   0.0000
  20 H            2.7812     4.0432     0.2441 H            1    LIG   0.0000
  21 H            3.2133     3.3329     1.6496 H            1    LIG   0.0000
  22 H            3.9600     2.3652    -0.9663 H            1    LIG   0.0000
  23 H            5.6198     1.8894     0.6735 H            1    LIG   0.0000
  24 H            4.4840     1.2008     1.6234 H            1    LIG   0.0000
  25 H            4.8878     0.5084     0.2006 H            1    LIG   0.0000
  26 H            3.2803    -0.4680    -0.0343 H            1    LIG   0.0000
  27 H            1.2220    -1.6849    -0.0206 H            1    LIG   0.0000
  28 H           -0.8709    -0.5263     0.0083 H            1    LIG   0.0000
  29 H           -1.9726     4.0087     0.0395 H            1    LIG   0.0000
  30 H           -1.2793     2.9505    -2.7226 H            1    LIG   0.0000
  31 H           -3.0385     1.8120    -4.2634 H            1    LIG   0.0000
  32 H           -4.3901     0.1944    -2.8430 H            1    LIG   0.0000
  33 H           -4.4198    -0.5182    -0.4068 H            1    LIG   0.0000
  34 H           -2.9328    -0.4934     0.2677 H            1    LIG   0.0000
  35 H           -4.0008     0.6959     0.6018 H            1    LIG   0.0000
  36 H            1.1551     3.1001     0.0087 H            1    LIG   0.0000
@<TRIPOS>BOND
   1        1        2 1
   2        2        3 1
   3        2        4 1
   4        4        5 ar
   5        5        6 ar
   6        6        7 ar
   7        7        8 ar
   8        8        9 1
   9        9       10 1
  10        9       11 1
  11       11       12 2
  12       12       13 1
  13       13       14 2
  14       14       15 1
  15       15       11 1
  16       15       16 1
  17        8       17 ar
  18       17        4 ar
  19        9       18 1
  20        1       19 1
  21        1       20 1
  22        1       21 1
  23        2       22 1
  24        3       23 1
  25        3       24 1
  26        3       25 1
  27        5       26 1
  28        6       27 1
  29        7       28 1
  30       10       29 1
  31       12       30 1
  32       13       31 1
  33       14       32 1
  34       16       33 1
  35       16       34 1
  36       16       35 1
  37       17       36 1

@<TRIPOS>MOLECULE

  36   37
SMALL
USER_CHARGES
@<TRIPOS>ATOM
   1 C1           3.7391     3.0713    -1.2579 C.3          1    LIG   0.0000
   2 C2           3.6831     2.1886    -0.0218 C.3          1    LIG   0.0000
   3 C3           3.7640     3.0556     1.2240 C.3          1    LIG   0.0000
   4 C4           2.3771     1.4101    -0.0136 C.ar         1    LIG   0.0000
   5 C5           2.4071     0.0194    -0.0224 C.ar         1    LIG   0.0000
   6 C6           1.2077    -0.6850    -0.0143 C.ar         1    LIG   0.0000
   7 C7          -0.0114    -0.0151     0.0024 C.ar         1    LIG   0.0000
   8 C8          -0.0177     1.3760     0.0110 C.ar         1    LIG   0.0000
   9 C9          -1.3432     2.1201     0.0262 C.3          1    LIG   0.0000
  10 O10         -1.1006     3.5192     0.0295 O.3          1    LIG   0.0000
  11 C11         -2.1471     1.7482    -1.2087 C.2          1    LIG   0.0000
  12 C12         -3.2823     0.9972    -1.2080 C.2          1    LIG   0.0000
  13 C13         -3.6890     0.9030    -2.5580 C.2          1    LIG   0.0000
  14 C14         -2.7950     1.5966    -3.3219 C.2          1    LIG   0.0000
  15 N15         -1.8494     2.1133    -2.4855 N.pl3        1    LIG   0.0000
  16 C16         -0.6987     2.9292    -2.8998 C.3          1    LIG   0.0000
  17 C17          1.1694     2.1002     0.0028 C.ar         1    LIG   0.0000
  18 H           -1.8570     1.8689     0.8465 H            1    LIG   0.0000
  19 H            4.5981     3.5833    -1.2633 H            1    LIG   0.0000
  20 H            3.6859     2.5009    -2.0776 H            1    LIG   0.0000
  21 H            2.9702     3.7105    -1.2462 H            1    LIG   0.0000
  22 H            4.4521     1.5494    -0.0335 H            1    LIG   0.0000
  23 H            4.6230     3.5676     1.2187 H            1    LIG   0.0000
  24 H            2.9950     3.6948     1.2358 H            1    LIG   0.0000
  25 H            3.7272     2.4749     2.0373 H            1    LIG   0.0000
  26 H            3.2803    -0.4680    -0.0343 H            1    LIG   0.0000
  27 H            1.2220    -1.6849    -0.0206 H            1    LIG   0.0000
  28 H           -0.8709    -0.5263     0.0083 H            1    LIG   0.0000
  29 H           -1.9726     4.0087     0.0395 H            1    LIG   0.0000
  30 H           -3.7364     0.5940    -0.4135 H            1    LIG   0.0000
  31 H           -4.4927     0.4131    -2.8955 H            1    LIG   0.0000
  32 H           -2.8275     1.7060    -4.3154 H            1    LIG   0.0000
  33 H           -0.7153     3.0490    -3.8925 H            1    LIG   0.0000
  34 H           -0.7469     3.8236    -2.4553 H            1    LIG   0.0000
  35 H            0.1487     2.4699    -2.6336 H            1    LIG   0.0000
  36 H            1.1551     3.1001     0.0087 H            1    LIG   0.0000
@<TRIPOS>BOND
   1        1        2 1
   2        2        3 1
   3        2        4 1
   4        4        5 ar
   5        5        6 ar
   6        6        7 ar
   7        7        8 ar
   8        8        9 1
   9        9       10 1
  10        9       11 1
  11       11       12 2
  12       12       13 1
  13       13       14 2
  14       14       15 1
  15       15       11 1
  16       15       16 1
  17        8       17 ar
  18       17        4 ar
  19        9       18 1
  20        1       19 1
  21        1       20 1
  22        1       21 1
  23        2       22 1
  24        3       23 1
  25        3       24 1
  26        3       25 1
  27        5       26 1
  28        6       27 1
  29        7       28 1
  30       10       29 1
  31       12       30 1
  32       13       31 1
  33       14       32 1
  34       16       33 1
  35       16       34 1
  36       16       35 1
  37       17       36 1

@<TRIPOS>MOLECULE

  36   37
SMALL
USER_CHARGES
@<TRIPOS>ATOM
   1 C1           4.7465     1.3865    -0.7541 C.3          1    LIG   0.0000
   2 C2           3.6831     2.1886    -0.0218 C.3          1    LIG   0.0000
   3 C3           3.4759     3.5186    -0.7279 C.3          1    LIG   0.0000
   4 C4           2.3771     1.4101    -0.0136 C.ar         1    LIG   0.0000
   5 C5           2.4071     0.0194    -0.0224 C.ar         1    LIG   0.0000
   6 C6           1.2077    -0.6850    -0.0143 C.ar         1    LIG   0.0000
   7 C7          -0.0114    -0.0151     0.0024 C.ar         1    LIG   0.0000
   8 C8          -0.0177     1.3760     0.0110 C.ar         1    LIG   0.0000
   9 C9          -1.3432     2.1201     0.0262 C.3          1    LIG   0.0000
  10 O10         -1.8575     2.1438     1.3496 O.3          1    LIG   0.0000
  11 C11         -1.1304     3.5440    -0.4602 C.2          1    LIG   0.0000
  12 C12         -1.3908     4.6667     0.2640 C.2          1    LIG   0.0000
  13 C13         -1.0499     5.7563    -0.5688 C.2          1    LIG   0.0000
  14 C14         -0.5965     5.2594    -1.7567 C.2          1    LIG   0.0000
  15 N15         -0.6491     3.8983    -1.6829 N.pl3        1    LIG   0.0000
  16 C16         -0.2511     2.9704    -2.7516 C.3          1    LIG   0.0000
  17 C17          1.1694     2.1002     0.0028 C.ar         1    LIG   0.0000
  18 H           -1.9930     1.6558    -0.5757 H            1    LIG   0.0000
  19 H            5.6055     1.8984    -0.7595 H            1    LIG   0.0000
  20 H            4.8829     0.5115    -0.2896 H            1    LIG   0.0000
  21 H            4.4507     1.2218    -1.6951 H            1    LIG   0.0000
  22 H            3.9789     2.3533     0.9192 H            1    LIG   0.0000
  23 H            4.3348     4.0305    -0.7333 H            1    LIG   0.0000
  24 H            3.1801     3.3539    -1.6688 H            1    LIG   0.0000
  25 H            2.7763     4.0463    -0.2461 H            1    LIG   0.0000
  26 H            3.2803    -0.4680    -0.0343 H            1    LIG   0.0000
  27 H            1.2220    -1.6849    -0.0206 H            1    LIG   0.0000
  28 H           -0.8709    -0.5263     0.0083 H            1    LIG   0.0000
  29 H           -2.7295     2.6333     1.3596 H            1    LIG   0.0000
  30 H           -1.7504     4.7115     1.1961 H            1    LIG   0.0000
  31 H           -1.1274     6.7241    -0.3293 H            1    LIG   0.0000
  32 H           -0.2824     5.7963    -2.5397 H            1    LIG   0.0000
  33 H            0.0663     3.4912    -3.5441 H            1    LIG   0.0000
  34 H            0.4865     2.3804    -2.4232 H            1    LIG   0.0000
  35 H           -1.0355     2.4085    -3.0143 H            1    LIG   0.0000
  36 H            1.1551     3.1001     0.0087 H            1    LIG   0.0000
@<TRIPOS>BOND
   1        1        2 1
   2        2        3 1
   3        2        4 1
   4        4        5 ar
   5        5        6 ar
   6        6        7 ar
   7        7        8 ar
   8        8        9 1
   9        9       10 1
  10        9       11 1
  11       11       12 2
  12       12       13 1
  13       13       14 2
  14       14       15 1
  15       15       11 1
  16       15       16 1
  17        8       17 ar
  18       17        4 ar
  19        9       18 1
  20        1       19 1
  21        1       20 1
  22        1       21 1
  23        2       22 1
  24        3       23 1
  25        3       24 1
  26        3       25 1
  27        5       26 1
  28        6       27 1
  29        7       28 1
  30       10       29 1
  31       12       30 1
  32       13       31 1
  33       14       32 1
  34       16       33 1
  35       16       34 1
  36       16       35 1
  37       17       36 1

@<TRIPOS>MOLECULE

  36   37
SMALL
USER_CHARGES
@<TRIPOS>ATOM
   1 C1           3.7391     3.0713    -1.2579 C.3          1    LIG   0.0000
   2 C2           3.6831     2.1886    -0.0218 C.3          1    LIG   0.0000
   3 C3           3.7640     3.0556     1.2240 C.3          1    LIG   0.0000
   4 C4           2.3771     1.4101    -0.0136 C.ar         1    LIG   0.0000
   5 C5           2.4071     0.0194    -0.0224 C.ar         1    LIG   0.0000
   6 C6           1.2077    -0.6850    -0.0143 C.ar         1    LIG   0.0000
   7 C7          -0.0114    -0.0151     0.0024 C.ar         1    LIG   0.0000
   8 C8          -0.0177     1.3760     0.0110 C.ar         1    LIG   0.0000
   9 C9          -1.3432     2.1201     0.0262 C.3          1    LIG   0.0000
  10 O10         -1.8575     2.1438     1.3496 O.3          1    LIG   0.0000
  11 C11         -1.1304     3.5440    -0.4602 C.2          1    LIG   0.0000
  12 C12         -1.5779     4.0425    -1.6452 C.2          1    LIG   0.0000
  13 C13         -1.1594     5.3916    -1.6841 C.2          1    LIG   0.0000
  14 C14         -0.4814     5.6611    -0.5303 C.2          1    LIG   0.0000
  15 N15         -0.4673     4.5203     0.2174 N.pl3        1    LIG   0.0000
  16 C16          0.1631     4.3737     1.5375 C.3          1    LIG   0.0000
  17 C17          1.1694     2.1002     0.0028 C.ar         1    LIG   0.0000
  18 H           -1.9930     1.6558    -0.5757 H            1    LIG   0.0000
  19 H            4.5981     3.5833    -1.2633 H            1    LIG   0.0000
  20 H            3.6859     2.5009    -2.0776 H            1    LIG   0.0000
  21 H            2.9702     3.7105    -1.2462 H            1    LIG   0.0000
  22 H            4.4521     1.5494    -0.0335 H            1    LIG   0.0000
  23 H            4.6230     3.5676     1.2187 H            1    LIG   0.0000
  24 H            2.9950     3.6948     1.2358 H            1    LIG   0.0000
  25 H            3.7272     2.4749     2.0373 H            1    LIG   0.0000
  26 H            3.2803    -0.4680    -0.0343 H            1    LIG   0.0000
  27 H            1.2220    -1.6849    -0.0206 H            1    LIG   0.0000
  28 H           -0.8709    -0.5263     0.0083 H            1    LIG   0.0000
  29 H           -2.7295     2.6333     1.3596 H            1    LIG   0.0000
  30 H           -2.0974     3.5533    -2.3458 H            1    LIG   0.0000
  31 H           -1.3303     6.0373    -2.4283 H            1    LIG   0.0000
  32 H           -0.0694     6.5369    -0.2786 H            1    LIG   0.0000
  33 H            0.5810     5.2418     1.8055 H            1    LIG   0.0000
  34 H           -0.5297     4.1153     2.2108 H            1    LIG   0.0000
  35 H            0.8666     3.6644     1.4940 H            1    LIG   0.0000
  36 H            1.1551     3.1001     0.0087 H            1    LIG   0.0000
@<TRIPOS>BOND
   1        1        2 1
   2        2        3 1
   3        2        4 1
   4        4        5 ar
   5        5        6 ar
   6        6        7 ar
   7        7        8 ar
   8        8        9 1
   9        9       10 1
  10        9       11 1
  11       11       12 2
  12       12       13 1
  13       13       14 2
  14       14       15 1
  15       15       11 1
  16       15       16 1
  17        8       17 ar
  18       17        4 ar
  19        9       18 1
  20        1       19 1
  21        1       20 1
  22        1       21 1
  23        2       22 1
  24        3       23 1
  25        3       24 1
  26        3       25 1
  27        5       26 1
  28        6       27 1
  29        7       28 1
  30       10       29 1
  31       12       30 1
  32       13       31 1
  33       14       32 1
  34       16       33 1
  35       16       34 1
  36       16       35 1
  37       17       36 1

@<TRIPOS>MOLECULE

  36   37
SMALL
USER_CHARGES
@<TRIPOS>ATOM
   1 C1           3.7391     3.0713    -1.2579 C.3          1    LIG   0.0000
   2 C2           3.6831     2.1886    -0.0218 C.3          1    LIG   0.0000
   3 C3           3.7640     3.0556     1.2240 C.3          1    LIG   0.0000
   4 C4           2.3771     1.4101    -0.0136 C.ar         1    LIG   0.0000
   5 C5           2.4071     0.0194    -0.0224 C.ar         1    LIG   0.0000
   6 C6           1.2077    -0.6850    -0.0143 C.ar         1    LIG   0.0000
   7 C7          -0.0114    -0.0151     0.0024 C.ar         1    LIG   0.0000
   8 C8          -0.0177     1.3760     0.0110 C.ar         1    LIG   0.0000
   9 C9          -1.3432     2.1201     0.0262 C.3          1    LIG   0.0000
  10 O10         -2.2499     1.4540     0.8926 O.3          1    LIG   0.0000
  11 C11         -1.1214     3.5402     0.5198 C.2          1    LIG   0.0000
  12 C12         -0.2861     3.8958     1.5340 C.2          1    LIG   0.0000
  13 C13         -0.3908     5.3001     1.6518 C.2          1    LIG   0.0000
  14 C14         -1.2761     5.7419     0.7111 C.2          1    LIG   0.0000
  15 N15         -1.7215     4.6542     0.0189 N.pl3        1    LIG   0.0000
  16 C16         -2.6915     4.6849    -1.0854 C.3          1    LIG   0.0000
  17 C17          1.1694     2.1002     0.0028 C.ar         1    LIG   0.0000
  18 H           -1.7226     2.1441    -0.8987 H            1    LIG   0.0000
  19 H            4.5981     3.5833    -1.2633 H            1    LIG   0.0000
  20 H            3.6859     2.5009    -2.0776 H            1    LIG   0.0000
  21 H            2.9702     3.7105    -1.2462 H            1    LIG   0.0000
  22 H            4.4521     1.5494    -0.0335 H            1    LIG   0.0000
  23 H            4.6230     3.5676     1.2187 H            1    LIG   0.0000
  24 H            2.9950     3.6948     1.2358 H            1    LIG   0.0000
  25 H            3.7272     2.4749     2.0373 H            1    LIG   0.0000
  26 H            3.2803    -0.4680    -0.0343 H            1    LIG   0.0000
  27 H            1.2220    -1.6849    -0.0206 H            1    LIG   0.0000
  28 H           -0.8709    -0.5263     0.0083 H            1    LIG   0.0000
  29 H           -3.1219     1.9435     0.9026 H            1    LIG   0.0000
  30 H            0.2855     3.2870     2.0841 H            1    LIG   0.0000
  31 H            0.0989     5.8715     2.3103 H            1    LIG   0.0000
  32 H           -1.5488     6.6917     0.5573 H            1    LIG   0.0000
  33 H           -2.9757     5.6288    -1.2533 H            1    LIG   0.0000
  34 H           -2.2683     4.3123    -1.9113 H            1    LIG   0.0000
  35 H           -3.4903     4.1344    -0.8427 H            1    LIG   0.0000
  36 H            1.1551     3.1001     0.0087 H            1    LIG   0.0000
@<TRIPOS>BOND
   1        1        2 1
   2        2        3 1
   3        2        4 1
   4        4        5 ar
   5        5        6 ar
   6        6        7 ar
   7        7        8 ar
   8        8        9 1
   9        9       10 1
  10        9       11 1
  11       11       12 2
  12       12       13 1
  13       13       14 2
  14       14       15 1
  15       15       11 1
  16       15       16 1
  17        8       17 ar
  18       17        4 ar
  19        9       18 1
  20        1       19 1
  21        1       20 1
  22        1       21 1
  23        2       22 1
  24        3       23 1
  25        3       24 1
  26        3       25 1
  27        5       26 1
  28        6       27 1
  29        7       28 1
  30       10       29 1
  31       12       30 1
  32       13       31 1
  33       14       32 1
  34       16       33 1
  35       16       34 1
  36       16       35 1
  37       17       36 1

@<TRIPOS>MOLECULE

  36   37
SMALL
USER_CHARGES
@<TRIPOS>ATOM
   1 C1           4.7465     1.3865    -0.7541 C.3          1    LIG   0.0000
   2 C2           3.6831     2.1886    -0.0218 C.3          1    LIG   0.0000
   3 C3           3.4759     3.5186    -0.7279 C.3          1    LIG   0.0000
   4 C4           2.3771     1.4101    -0.0136 C.ar         1    LIG   0.0000
   5 C5           2.4071     0.0194    -0.0224 C.ar         1    LIG   0.0000
   6 C6           1.2077    -0.6850    -0.0143 C.ar         1    LIG   0.0000
   7 C7          -0.0114    -0.0151     0.0024 C.ar         1    LIG   0.0000
   8 C8          -0.0177     1.3760     0.0110 C.ar         1    LIG   0.0000
   9 C9          -1.3432     2.1201     0.0262 C.3          1    LIG   0.0000
  10 O10         -2.2499     1.4540     0.8926 O.3          1    LIG   0.0000
  11 C11         -1.1214     3.5402     0.5198 C.2          1    LIG   0.0000
  12 C12         -1.2151     4.6603    -0.2479 C.2          1    LIG   0.0000
  13 C13         -0.9337     5.7467     0.6108 C.2          1    LIG   0.0000
  14 C14         -0.6843     5.2508     1.8581 C.2          1    LIG   0.0000
  15 N15         -0.8012     3.8933     1.7945 N.pl3        1    LIG   0.0000
  16 C16         -0.6105     2.9674     2.9205 C.3          1    LIG   0.0000
  17 C17          1.1694     2.1002     0.0028 C.ar         1    LIG   0.0000
  18 H           -1.7226     2.1441    -0.8987 H            1    LIG   0.0000
  19 H            5.6055     1.8984    -0.7595 H            1    LIG   0.0000
  20 H            4.8829     0.5115    -0.2896 H            1    LIG   0.0000
  21 H            4.4507     1.2218    -1.6951 H            1    LIG   0.0000
  22 H            3.9789     2.3533     0.9192 H            1    LIG   0.0000
  23 H            4.3348     4.0305    -0.7333 H            1    LIG   0.0000
  24 H            3.1801     3.3539    -1.6688 H            1    LIG   0.0000
  25 H            2.7763     4.0463    -0.2461 H            1    LIG   0.0000
  26 H            3.2803    -0.4680    -0.0343 H            1    LIG   0.0000
  27 H            1.2220    -1.6849    -0.0206 H            1    LIG   0.0000
  28 H           -0.8709    -0.5263     0.0083 H            1    LIG   0.0000
  29 H           -3.1219     1.9435     0.9026 H            1    LIG   0.0000
  30 H           -1.4378     4.7053    -1.2217 H            1    LIG   0.0000
  31 H           -0.9197     6.7120     0.3500 H            1    LIG   0.0000
  32 H           -0.4569     5.7862     2.6715 H            1    LIG   0.0000
  33 H           -0.3820     3.4866     3.7440 H            1    LIG   0.0000
  34 H           -1.4534     2.4519     3.0746 H            1    LIG   0.0000
  35 H            0.1336     2.3338     2.7087 H            1    LIG   0.0000
  36 H            1.1551     3.1001     0.0087 H            1    LIG   0.0000
@<TRIPOS>BOND
   1        1        2 1
   2        2        3 1
   3        2        4 1
   4        4        5 ar
   5        5        6 ar
   6        6        7 ar
   7        7        8 ar
   8        8        9 1
   9        9       10 1
  10        9       11 1
  11       11       12 2
  12       12       13 1
  13       13       14 2
  14       14       15 1
  15       15       11 1
  16       15       16 1
  17        8       17 ar
  18       17        4 ar
  19        9       18 1
  20        1       19 1
  21        1       20 1
  22        1       21 1
  23        2       22 1
  24        3       23 1
  25        3       24 1
  26        3       25 1
  27        5       26 1
  28        6       27 1
  29        7       28 1
  30       10       29 1
  31       12       30 1
  32       13       31 1
  33       14       32 1
  34       16       33 1
  35       16       34 1
  36       16       35 1
  37       17       36 1

@<TRIPOS>MOLECULE

  36   37
SMALL
USER_CHARGES
@<TRIPOS>ATOM
   1 C1           3.7391     3.0713    -1.2579 C.3          1    LIG   0.0000
   2 C2           3.6831     2.1886    -0.0218 C.3          1    LIG   0.0000
   3 C3           3.7640     3.0556     1.2240 C.3          1    LIG   0.0000
   4 C4           2.3771     1.4101    -0.0136 C.ar         1    LIG   0.0000
   5 C5           2.4071     0.0194    -0.0224 C.ar         1    LIG   0.0000
   6 C6           1.2077    -0.6850    -0.0143 C.ar         1    LIG   0.0000
   7 C7          -0.0114    -0.0151     0.0024 C.ar         1    LIG   0.0000
   8 C8          -0.0177     1.3760     0.0110 C.ar         1    LIG   0.0000
   9 C9          -1.3432     2.1201     0.0262 C.3          1    LIG   0.0000
  10 O10         -1.3442     3.1062    -0.9955 O.3          1    LIG   0.0000
  11 C11         -2.4779     1.1386    -0.2160 C.2          1    LIG   0.0000
  12 C12         -3.3561     1.1966    -1.2543 C.2          1    LIG   0.0000
  13 C13         -4.2311     0.0996    -1.0873 C.2          1    LIG   0.0000
  14 C14         -3.8536    -0.5798     0.0350 C.2          1    LIG   0.0000
  15 N15         -2.7750     0.0649     0.5658 N.pl3        1    LIG   0.0000
  16 C16         -2.0556    -0.3369     1.7833 C.3          1    LIG   0.0000
  17 C17          1.1694     2.1002     0.0028 C.ar         1    LIG   0.0000
  18 H           -1.4678     2.5609     0.9151 H            1    LIG   0.0000
  19 H            4.5981     3.5833    -1.2633 H            1    LIG   0.0000
  20 H            3.6859     2.5009    -2.0776 H            1    LIG   0.0000
  21 H            2.9702     3.7105    -1.2462 H            1    LIG   0.0000
  22 H            4.4521     1.5494    -0.0335 H            1    LIG   0.0000
  23 H            4.6230     3.5676     1.2187 H            1    LIG   0.0000
  24 H            2.9950     3.6948     1.2358 H            1    LIG   0.0000
  25 H            3.7272     2.4749     2.0373 H            1    LIG   0.0000
  26 H            3.2803    -0.4680    -0.0343 H            1    LIG   0.0000
  27 H            1.2220    -1.6849    -0.0206 H            1    LIG   0.0000
  28 H           -0.8709    -0.5263     0.0083 H            1    LIG   0.0000
  29 H           -2.2162     3.5957    -0.9855 H            1    LIG   0.0000
  30 H           -3.3778     1.8773    -1.9865 H            1    LIG   0.0000
  31 H           -4.9949    -0.1379    -1.6875 H            1    LIG   0.0000
  32 H           -4.2892    -1.4018     0.4018 H            1    LIG   0.0000
  33 H           -2.4785    -1.1591     2.1644 H            1    LIG   0.0000
  34 H           -1.1000    -0.5273     1.5583 H            1    LIG   0.0000
  35 H           -2.0989     0.4023     2.4554 H            1    LIG   0.0000
  36 H            1.1551     3.1001     0.0087 H            1    LIG   0.0000
@<TRIPOS>BOND
   1        1        2 1
   2        2        3 1
   3        2        4 1
   4        4        5 ar
   5        5        6 ar
   6        6        7 ar
   7        7        8 ar
   8        8        9 1
   9        9       10 1
  10        9       11 1
  11       11       12 2
  12       12       13 1
  13       13       14 2
  14       14       15 1
  15       15       11 1
  16       15       16 1
  17        8       17 ar
  18       17        4 ar
  19        9       18 1
  20        1       19 1
  21        1       20 1
  22        1       21 1
  23        2       22 1
  24        3       23 1
  25        3       24 1
  26        3       25 1
  27        5       26 1
  28        6       27 1
  29        7       28 1
  30       10       29 1
  31       12       30 1
  32       13       31 1
  33       14       32 1
  34       16       33 1
  35       16       34 1
  36       16       35 1
  37       17       36 1

@<TRIPOS>MOLECULE

  36   37
SMALL
USER_CHARGES
@<TRIPOS>ATOM
   1 C1           3.3848     3.6789    -0.0094 C.3          1    LIG   0.0000
   2 C2           3.6831     2.1886    -0.0218 C.3          1    LIG   0.0000
   3 C3           4.4976     1.8246     1.2089 C.3          1    LIG   0.0000
   4 C4           2.3771     1.4101    -0.0136 C.ar         1    LIG   0.0000
   5 C5           2.4071     0.0194    -0.0224 C.ar         1    LIG   0.0000
   6 C6           1.2077    -0.6850    -0.0143 C.ar         1    LIG   0.0000
   7 C7          -0.0114    -0.0151     0.0024 C.ar         1    LIG   0.0000
   8 C8          -0.0177     1.3760     0.0110 C.ar         1    LIG   0.0000
   9 C9          -1.3432     2.1201     0.0262 C.3          1    LIG   0.0000
  10 O10         -1.3442     3.1062    -0.9955 O.3          1    LIG   0.0000
  11 C11         -2.4779     1.1386    -0.2160 C.2          1    LIG   0.0000
  12 C12         -3.3954     0.7564     0.7141 C.2          1    LIG   0.0000
  13 C13         -4.2542    -0.1574     0.0627 C.2          1    LIG   0.0000
  14 C14         -3.8318    -0.2933    -1.2284 C.2          1    LIG   0.0000
  15 N15         -2.7389     0.5063    -1.3925 N.pl3        1    LIG   0.0000
  16 C16         -1.9715     0.6565    -2.6374 C.3          1    LIG   0.0000
  17 C17          1.1694     2.1002     0.0028 C.ar         1    LIG   0.0000
  18 H           -1.4678     2.5609     0.9151 H            1    LIG   0.0000
  19 H            4.2437     4.1909    -0.0147 H            1    LIG   0.0000
  20 H            2.8489     3.9184    -0.8190 H            1    LIG   0.0000
  21 H            2.8653     3.9080     0.8138 H            1    LIG   0.0000
  22 H            4.2026     1.9595    -0.8450 H            1    LIG   0.0000
  23 H            5.3566     2.3366     1.2035 H            1    LIG   0.0000
  24 H            3.9781     2.0537     2.0321 H            1    LIG   0.0000
  25 H            4.6939     0.8441     1.2007 H            1    LIG   0.0000
  26 H            3.2803    -0.4680    -0.0343 H            1    LIG   0.0000
  27 H            1.2220    -1.6849    -0.0206 H            1    LIG   0.0000
  28 H           -0.8709    -0.5263     0.0083 H            1    LIG   0.0000
  29 H           -2.2162     3.5957    -0.9855 H            1    LIG   0.0000
  30 H           -3.4506     1.0606     1.6651 H            1    LIG   0.0000
  31 H           -5.0362    -0.6240     0.4760 H            1    LIG   0.0000
  32 H           -4.2484    -0.8742    -1.9277 H            1    LIG   0.0000
  33 H           -2.3749     0.0814    -3.3491 H            1    LIG   0.0000
  34 H           -1.9934     1.6127    -2.9293 H            1    LIG   0.0000
  35 H           -1.0240     0.3775    -2.4807 H            1    LIG   0.0000
  36 H            1.1551     3.1001     0.0087 H            1    LIG   0.0000
@<TRIPOS>BOND
   1        1        2 1
   2        2        3 1
   3        2        4 1
   4        4        5 ar
   5        5        6 ar
   6        6        7 ar
   7        7        8 ar
   8        8        9 1
   9        9       10 1
  10        9       11 1
  11       11       12 2
  12       12       13 1
  13       13       14 2
  14       14       15 1
  15       15       11 1
  16       15       16 1
  17        8       17 ar
  18       17        4 ar
  19        9       18 1
  20        1       19 1
  21        1       20 1
  22        1       21 1
  23        2       22 1
  24        3       23 1
  25        3       24 1
  26        3       25 1
  27        5       26 1
  28        6       27 1
  29        7       28 1
  30       10       29 1
  31       12       30 1
  32       13       31 1
  33       14       32 1
  34       16       33 1
  35       16       34 1
  36       16       35 1
  37       17       36 1

