@<TRIPOS>MOLECULE
*****
 36 37 0 0 0
SMALL
USER_CHARGES

@<TRIPOS>ATOM
      1 C1          3.7391    3.0713   -1.2579 C.3     1  LIG1        0.0000
      2 C2          3.6831    2.1886   -0.0218 C.3     1  LIG1        0.0000
      3 C3          3.7640    3.0556    1.2240 C.3     1  LIG1        0.0000
      4 C4          2.3771    1.4101   -0.0136 C.ar    1  LIG1        0.0000
      5 C5          2.4071    0.0194   -0.0224 C.ar    1  LIG1        0.0000
      6 C6          1.2077   -0.6850   -0.0143 C.ar    1  LIG1        0.0000
      7 C7         -0.0114   -0.0151    0.0024 C.ar    1  LIG1        0.0000
      8 C8         -0.0177    1.3760    0.0110 C.ar    1  LIG1        0.0000
      9 C9         -1.3432    2.1201    0.0262 C.3     1  LIG1        0.0000
     10 O10        -2.2659    1.4608   -0.8284 O.3     1  LIG1        0.0000
     11 C11        -1.8936    2.1455    1.4425 C.2     1  LIG1        0.0000
     12 C12        -1.2098    1.7643    2.5560 C.2     1  LIG1        0.0000
     13 C13        -2.0957    1.9507    3.6410 C.2     1  LIG1        0.0000
     14 C14        -3.2737    2.4365    3.1511 C.2     1  LIG1        0.0000
     15 N15        -3.1422    2.5535    1.7984 N.pl3   1  LIG1        0.0000
     16 C16        -4.1818    3.0399    0.8796 C.3     1  LIG1        0.0000
     17 C17         1.1694    2.1002    0.0028 C.ar    1  LIG1        0.0000
     18 H          -1.2032    3.0571   -0.2939 H       1  LIG1        0.0000
     19 H           4.5981    3.5833   -1.2633 H       1  LIG1        0.0000
     20 H           3.6859    2.5009   -2.0776 H       1  LIG1        0.0000
     21 H           2.9702    3.7105   -1.2462 H       1  LIG1        0.0000
     22 H           4.4521    1.5494   -0.0335 H       1  LIG1        0.0000
     23 H           4.6230    3.5676    1.2187 H       1  LIG1        0.0000
     24 H           2.9950    3.6948    1.2358 H       1  LIG1        0.0000
     25 H           3.7272    2.4749    2.0373 H       1  LIG1        0.0000
     26 H           3.2803   -0.4680   -0.0343 H       1  LIG1        0.0000
     27 H           1.2220   -1.6849   -0.0206 H       1  LIG1        0.0000
     28 H          -0.8709   -0.5263    0.0083 H       1  LIG1        0.0000
     29 H          -3.1379    1.9503   -0.8184 H       1  LIG1        0.0000
     30 H          -0.2712    1.4218    2.5978 H       1  LIG1        0.0000
     31 H          -1.8945    1.7597    4.6018 H       1  LIG1        0.0000
     32 H          -4.0863    2.6654    3.6871 H       1  LIG1        0.0000
     33 H          -5.0033    3.2739    1.3996 H       1  LIG1        0.0000
     34 H          -3.8489    3.8514    0.3992 H       1  LIG1        0.0000
     35 H          -4.4002    2.3253    0.2150 H       1  LIG1        0.0000
     36 H           1.1551    3.1001    0.0087 H       1  LIG1        0.0000
@<TRIPOS>BOND
     1     1     2    1
     2     2     3    1
     3     2     4    1
     4     4     5   ar
     5     5     6   ar
     6     6     7   ar
     7     7     8   ar
     8     8     9    1
     9     9    10    1
    10     9    11    1
    11    11    12    2
    12    12    13    1
    13    13    14    2
    14    14    15    1
    15    15    11    1
    16    15    16    1
    17     8    17   ar
    18    17     4   ar
    19     9    18    1
    20     1    19    1
    21     1    20    1
    22     1    21    1
    23     2    22    1
    24     3    23    1
    25     3    24    1
    26     3    25    1
    27     5    26    1
    28     6    27    1
    29     7    28    1
    30    10    29    1
    31    12    30    1
    32    13    31    1
    33    14    32    1
    34    16    33    1
    35    16    34    1
    36    16    35    1
    37    17    36    1
