@<TRIPOS>MOLECULE
*****
 36 37 0 0 0
SMALL
USER_CHARGES

@<TRIPOS>ATOM
      1 C1          4.7465    1.3865   -0.7541 C.3     1  LIG1        0.0000
      2 C2          3.6831    2.1886   -0.0218 C.3     1  LIG1        0.0000
      3 C3          3.4759    3.5186   -0.7279 C.3     1  LIG1        0.0000
      4 C4          2.3771    1.4101   -0.0136 C.ar    1  LIG1        0.0000
      5 C5          2.4071    0.0194   -0.0224 C.ar    1  LIG1        0.0000
      6 C6          1.2077   -0.6850   -0.0143 C.ar    1  LIG1        0.0000
      7 C7         -0.0114   -0.0151    0.0024 C.ar    1  LIG1        0.0000
      8 C8         -0.0177    1.3760    0.0110 C.ar    1  LIG1        0.0000
      9 C9         -1.3432    2.1201    0.0262 C.3     1  LIG1        0.0000
     10 O10        -1.8575    2.1438    1.3496 O.3     1  LIG1        0.0000
     11 C11        -1.1304    3.5440   -0.4602 C.2     1  LIG1        0.0000
     12 C12        -1.3908    4.6667    0.2640 C.2     1  LIG1        0.0000
     13 C13        -1.0499    5.7563   -0.5688 C.2     1  LIG1        0.0000
     14 C14        -0.5965    5.2594   -1.7567 C.2     1  LIG1        0.0000
     15 N15        -0.6491    3.8983   -1.6829 N.pl3   1  LIG1        0.0000
     16 C16        -0.2511    2.9704   -2.7516 C.3     1  LIG1        0.0000
     17 C17         1.1694    2.1002    0.0028 C.ar    1  LIG1        0.0000
     18 H          -1.9930    1.6558   -0.5757 H       1  LIG1        0.0000
     19 H           5.6055    1.8984   -0.7595 H       1  LIG1        0.0000
     20 H           4.8829    0.5115   -0.2896 H       1  LIG1        0.0000
     21 H           4.4507    1.2218   -1.6951 H       1  LIG1        0.0000
     22 H           3.9789    2.3533    0.9192 H       1  LIG1        0.0000
     23 H           4.3348    4.0305   -0.7333 H       1  LIG1        0.0000
     24 H           3.1801    3.3539   -1.6688 H       1  LIG1        0.0000
     25 H           2.7763    4.0463   -0.2461 H       1  LIG1        0.0000
     26 H           3.2803   -0.4680   -0.0343 H       1  LIG1        0.0000
     27 H           1.2220   -1.6849   -0.0206 H       1  LIG1        0.0000
     28 H          -0.8709   -0.5263    0.0083 H       1  LIG1        0.0000
     29 H          -2.7295    2.6333    1.3596 H       1  LIG1        0.0000
     30 H          -1.7504    4.7115    1.1961 H       1  LIG1        0.0000
     31 H          -1.1274    6.7241   -0.3293 H       1  LIG1        0.0000
     32 H          -0.2824    5.7963   -2.5397 H       1  LIG1        0.0000
     33 H           0.0663    3.4912   -3.5441 H       1  LIG1        0.0000
     34 H           0.4865    2.3804   -2.4232 H       1  LIG1        0.0000
     35 H          -1.0355    2.4085   -3.0143 H       1  LIG1        0.0000
     36 H           1.1551    3.1001    0.0087 H       1  LIG1        0.0000
@<TRIPOS>BOND
     1     1     2    1
     2     2     3    1
     3     2     4    1
     4     4     5   ar
     5     5     6   ar
     6     6     7   ar
     7     7     8   ar
     8     8     9    1
     9     9    10    1
    10     9    11    1
    11    11    12    2
    12    12    13    1
    13    13    14    2
    14    14    15    1
    15    15    11    1
    16    15    16    1
    17     8    17   ar
    18    17     4   ar
    19     9    18    1
    20     1    19    1
    21     1    20    1
    22     1    21    1
    23     2    22    1
    24     3    23    1
    25     3    24    1
    26     3    25    1
    27     5    26    1
    28     6    27    1
    29     7    28    1
    30    10    29    1
    31    12    30    1
    32    13    31    1
    33    14    32    1
    34    16    33    1
    35    16    34    1
    36    16    35    1
    37    17    36    1
