@<TRIPOS>MOLECULE
*****
 36 37 0 0 0
SMALL
USER_CHARGES

@<TRIPOS>ATOM
      1 C1          3.7391    3.0713   -1.2579 C.3     1  LIG1        0.0000
      2 C2          3.6831    2.1886   -0.0218 C.3     1  LIG1        0.0000
      3 C3          3.7640    3.0556    1.2240 C.3     1  LIG1        0.0000
      4 C4          2.3771    1.4101   -0.0136 C.ar    1  LIG1        0.0000
      5 C5          2.4071    0.0194   -0.0224 C.ar    1  LIG1        0.0000
      6 C6          1.2077   -0.6850   -0.0143 C.ar    1  LIG1        0.0000
      7 C7         -0.0114   -0.0151    0.0024 C.ar    1  LIG1        0.0000
      8 C8         -0.0177    1.3760    0.0110 C.ar    1  LIG1        0.0000
      9 C9         -1.3432    2.1201    0.0262 C.3     1  LIG1        0.0000
     10 O10        -1.1006    3.5192    0.0295 O.3     1  LIG1        0.0000
     11 C11        -2.1471    1.7482   -1.2087 C.2     1  LIG1        0.0000
     12 C12        -3.2823    0.9972   -1.2080 C.2     1  LIG1        0.0000
     13 C13        -3.6890    0.9030   -2.5580 C.2     1  LIG1        0.0000
     14 C14        -2.7950    1.5966   -3.3219 C.2     1  LIG1        0.0000
     15 N15        -1.8494    2.1133   -2.4855 N.pl3   1  LIG1        0.0000
     16 C16        -0.6987    2.9292   -2.8998 C.3     1  LIG1        0.0000
     17 C17         1.1694    2.1002    0.0028 C.ar    1  LIG1        0.0000
     18 H          -1.8570    1.8689    0.8465 H       1  LIG1        0.0000
     19 H           4.5981    3.5833   -1.2633 H       1  LIG1        0.0000
     20 H           3.6859    2.5009   -2.0776 H       1  LIG1        0.0000
     21 H           2.9702    3.7105   -1.2462 H       1  LIG1        0.0000
     22 H           4.4521    1.5494   -0.0335 H       1  LIG1        0.0000
     23 H           4.6230    3.5676    1.2187 H       1  LIG1        0.0000
     24 H           2.9950    3.6948    1.2358 H       1  LIG1        0.0000
     25 H           3.7272    2.4749    2.0373 H       1  LIG1        0.0000
     26 H           3.2803   -0.4680   -0.0343 H       1  LIG1        0.0000
     27 H           1.2220   -1.6849   -0.0206 H       1  LIG1        0.0000
     28 H          -0.8709   -0.5263    0.0083 H       1  LIG1        0.0000
     29 H          -1.9726    4.0087    0.0395 H       1  LIG1        0.0000
     30 H          -3.7364    0.5940   -0.4135 H       1  LIG1        0.0000
     31 H          -4.4927    0.4131   -2.8955 H       1  LIG1        0.0000
     32 H          -2.8275    1.7060   -4.3154 H       1  LIG1        0.0000
     33 H          -0.7153    3.0490   -3.8925 H       1  LIG1        0.0000
     34 H          -0.7469    3.8236   -2.4553 H       1  LIG1        0.0000
     35 H           0.1487    2.4699   -2.6336 H       1  LIG1        0.0000
     36 H           1.1551    3.1001    0.0087 H       1  LIG1        0.0000
@<TRIPOS>BOND
     1     1     2    1
     2     2     3    1
     3     2     4    1
     4     4     5   ar
     5     5     6   ar
     6     6     7   ar
     7     7     8   ar
     8     8     9    1
     9     9    10    1
    10     9    11    1
    11    11    12    2
    12    12    13    1
    13    13    14    2
    14    14    15    1
    15    15    11    1
    16    15    16    1
    17     8    17   ar
    18    17     4   ar
    19     9    18    1
    20     1    19    1
    21     1    20    1
    22     1    21    1
    23     2    22    1
    24     3    23    1
    25     3    24    1
    26     3    25    1
    27     5    26    1
    28     6    27    1
    29     7    28    1
    30    10    29    1
    31    12    30    1
    32    13    31    1
    33    14    32    1
    34    16    33    1
    35    16    34    1
    36    16    35    1
    37    17    36    1
