@<TRIPOS>MOLECULE
*****
 36 37 0 0 0
SMALL
USER_CHARGES

@<TRIPOS>ATOM
      1 C1          3.4902    3.5095    0.7051 C.3     1  LIG1        0.0000
      2 C2          3.6831    2.1886   -0.0218 C.3     1  LIG1        0.0000
      3 C3          4.7609    1.3774    0.6789 C.3     1  LIG1        0.0000
      4 C4          2.3771    1.4101   -0.0136 C.ar    1  LIG1        0.0000
      5 C5          2.4071    0.0194   -0.0224 C.ar    1  LIG1        0.0000
      6 C6          1.2077   -0.6850   -0.0143 C.ar    1  LIG1        0.0000
      7 C7         -0.0114   -0.0151    0.0024 C.ar    1  LIG1        0.0000
      8 C8         -0.0177    1.3760    0.0110 C.ar    1  LIG1        0.0000
      9 C9         -1.3432    2.1201    0.0262 C.3     1  LIG1        0.0000
     10 O10        -1.1006    3.5192    0.0295 O.3     1  LIG1        0.0000
     11 C11        -2.1471    1.7482   -1.2087 C.2     1  LIG1        0.0000
     12 C12        -1.9579    2.2674   -2.4527 C.2     1  LIG1        0.0000
     13 C13        -2.9151    1.6450   -3.2852 C.2     1  LIG1        0.0000
     14 C14        -3.6422    0.7763   -2.5234 C.2     1  LIG1        0.0000
     15 N15        -3.1646    0.8453   -1.2475 N.pl3   1  LIG1        0.0000
     16 C16        -3.6699    0.0704   -0.1048 C.3     1  LIG1        0.0000
     17 C17         1.1694    2.1002    0.0028 C.ar    1  LIG1        0.0000
     18 H          -1.8570    1.8689    0.8465 H       1  LIG1        0.0000
     19 H           4.3492    4.0215    0.6997 H       1  LIG1        0.0000
     20 H           2.7812    4.0432    0.2441 H       1  LIG1        0.0000
     21 H           3.2133    3.3329    1.6496 H       1  LIG1        0.0000
     22 H           3.9600    2.3652   -0.9663 H       1  LIG1        0.0000
     23 H           5.6198    1.8894    0.6735 H       1  LIG1        0.0000
     24 H           4.4840    1.2008    1.6234 H       1  LIG1        0.0000
     25 H           4.8878    0.5084    0.2006 H       1  LIG1        0.0000
     26 H           3.2803   -0.4680   -0.0343 H       1  LIG1        0.0000
     27 H           1.2220   -1.6849   -0.0206 H       1  LIG1        0.0000
     28 H          -0.8709   -0.5263    0.0083 H       1  LIG1        0.0000
     29 H          -1.9726    4.0087    0.0395 H       1  LIG1        0.0000
     30 H          -1.2793    2.9505   -2.7226 H       1  LIG1        0.0000
     31 H          -3.0385    1.8120   -4.2634 H       1  LIG1        0.0000
     32 H          -4.3901    0.1944   -2.8430 H       1  LIG1        0.0000
     33 H          -4.4198   -0.5182   -0.4068 H       1  LIG1        0.0000
     34 H          -2.9328   -0.4934    0.2677 H       1  LIG1        0.0000
     35 H          -4.0008    0.6959    0.6018 H       1  LIG1        0.0000
     36 H           1.1551    3.1001    0.0087 H       1  LIG1        0.0000
@<TRIPOS>BOND
     1     1     2    1
     2     2     3    1
     3     2     4    1
     4     4     5   ar
     5     5     6   ar
     6     6     7   ar
     7     7     8   ar
     8     8     9    1
     9     9    10    1
    10     9    11    1
    11    11    12    2
    12    12    13    1
    13    13    14    2
    14    14    15    1
    15    15    11    1
    16    15    16    1
    17     8    17   ar
    18    17     4   ar
    19     9    18    1
    20     1    19    1
    21     1    20    1
    22     1    21    1
    23     2    22    1
    24     3    23    1
    25     3    24    1
    26     3    25    1
    27     5    26    1
    28     6    27    1
    29     7    28    1
    30    10    29    1
    31    12    30    1
    32    13    31    1
    33    14    32    1
    34    16    33    1
    35    16    34    1
    36    16    35    1
    37    17    36    1
