@<TRIPOS>MOLECULE
*****
 36 37 0 0 0
SMALL
USER_CHARGES

@<TRIPOS>ATOM
      1 C1          3.3848    3.6789   -0.0094 C.3     1  LIG1        0.0000
      2 C2          3.6831    2.1886   -0.0218 C.3     1  LIG1        0.0000
      3 C3          4.4976    1.8246    1.2089 C.3     1  LIG1        0.0000
      4 C4          2.3771    1.4101   -0.0136 C.ar    1  LIG1        0.0000
      5 C5          2.4071    0.0194   -0.0224 C.ar    1  LIG1        0.0000
      6 C6          1.2077   -0.6850   -0.0143 C.ar    1  LIG1        0.0000
      7 C7         -0.0114   -0.0151    0.0024 C.ar    1  LIG1        0.0000
      8 C8         -0.0177    1.3760    0.0110 C.ar    1  LIG1        0.0000
      9 C9         -1.3432    2.1201    0.0262 C.3     1  LIG1        0.0000
     10 O10        -2.2659    1.4608   -0.8284 O.3     1  LIG1        0.0000
     11 C11        -1.8936    2.1455    1.4425 C.2     1  LIG1        0.0000
     12 C12        -2.5514    1.1181    2.0463 C.2     1  LIG1        0.0000
     13 C13        -2.8794    1.5730    3.3432 C.2     1  LIG1        0.0000
     14 C14        -2.4105    2.8479    3.4791 C.2     1  LIG1        0.0000
     15 N15        -1.8057    3.1935    2.3063 N.pl3   1  LIG1        0.0000
     16 C16        -1.1662    4.4872    2.0255 C.3     1  LIG1        0.0000
     17 C17         1.1694    2.1002    0.0028 C.ar    1  LIG1        0.0000
     18 H          -1.2032    3.0571   -0.2939 H       1  LIG1        0.0000
     19 H           4.2437    4.1909   -0.0147 H       1  LIG1        0.0000
     20 H           2.8489    3.9184   -0.8190 H       1  LIG1        0.0000
     21 H           2.8653    3.9080    0.8138 H       1  LIG1        0.0000
     22 H           4.2026    1.9595   -0.8450 H       1  LIG1        0.0000
     23 H           5.3566    2.3366    1.2035 H       1  LIG1        0.0000
     24 H           3.9781    2.0537    2.0321 H       1  LIG1        0.0000
     25 H           4.6939    0.8441    1.2007 H       1  LIG1        0.0000
     26 H           3.2803   -0.4680   -0.0343 H       1  LIG1        0.0000
     27 H           1.2220   -1.6849   -0.0206 H       1  LIG1        0.0000
     28 H          -0.8709   -0.5263    0.0083 H       1  LIG1        0.0000
     29 H          -3.1379    1.9503   -0.8184 H       1  LIG1        0.0000
     30 H          -2.7601    0.2231    1.6520 H       1  LIG1        0.0000
     31 H          -3.3702    1.0513    4.0410 H       1  LIG1        0.0000
     32 H          -2.4951    3.4244    4.2918 H       1  LIG1        0.0000
     33 H          -1.2416    5.0776    2.8291 H       1  LIG1        0.0000
     34 H          -0.2010    4.3417    1.8081 H       1  LIG1        0.0000
     35 H          -1.6211    4.9222    1.2484 H       1  LIG1        0.0000
     36 H           1.1551    3.1001    0.0087 H       1  LIG1        0.0000
@<TRIPOS>BOND
     1     1     2    1
     2     2     3    1
     3     2     4    1
     4     4     5   ar
     5     5     6   ar
     6     6     7   ar
     7     7     8   ar
     8     8     9    1
     9     9    10    1
    10     9    11    1
    11    11    12    2
    12    12    13    1
    13    13    14    2
    14    14    15    1
    15    15    11    1
    16    15    16    1
    17     8    17   ar
    18    17     4   ar
    19     9    18    1
    20     1    19    1
    21     1    20    1
    22     1    21    1
    23     2    22    1
    24     3    23    1
    25     3    24    1
    26     3    25    1
    27     5    26    1
    28     6    27    1
    29     7    28    1
    30    10    29    1
    31    12    30    1
    32    13    31    1
    33    14    32    1
    34    16    33    1
    35    16    34    1
    36    16    35    1
    37    17    36    1
