@<TRIPOS>MOLECULE
*****
 36 37 0 0 0
SMALL
USER_CHARGES

@<TRIPOS>ATOM
      1 C1          4.7465    1.3865   -0.7541 C.3     1  LIG1        0.0000
      2 C2          3.6831    2.1886   -0.0218 C.3     1  LIG1        0.0000
      3 C3          3.4759    3.5186   -0.7279 C.3     1  LIG1        0.0000
      4 C4          2.3771    1.4101   -0.0136 C.ar    1  LIG1        0.0000
      5 C5          2.4071    0.0194   -0.0224 C.ar    1  LIG1        0.0000
      6 C6          1.2077   -0.6850   -0.0143 C.ar    1  LIG1        0.0000
      7 C7         -0.0114   -0.0151    0.0024 C.ar    1  LIG1        0.0000
      8 C8         -0.0177    1.3760    0.0110 C.ar    1  LIG1        0.0000
      9 C9         -1.3432    2.1201    0.0262 C.3     1  LIG1        0.0000
     10 O10        -1.8819    2.1542   -1.2872 O.3     1  LIG1        0.0000
     11 C11        -2.3136    1.4073    0.9534 C.2     1  LIG1        0.0000
     12 C12        -3.0297    0.2948    0.6333 C.2     1  LIG1        0.0000
     13 C13        -3.7926   -0.0218    1.7799 C.2     1  LIG1        0.0000
     14 C14        -3.5120    0.9005    2.7466 C.2     1  LIG1        0.0000
     15 N15        -2.6021    1.7763    2.2312 N.pl3   1  LIG1        0.0000
     16 C16        -2.0304    2.9289    2.9426 C.3     1  LIG1        0.0000
     17 C17         1.1694    2.1002    0.0028 C.ar    1  LIG1        0.0000
     18 H          -1.1972    3.0545    0.3510 H       1  LIG1        0.0000
     19 H           5.6055    1.8984   -0.7595 H       1  LIG1        0.0000
     20 H           4.8829    0.5115   -0.2896 H       1  LIG1        0.0000
     21 H           4.4507    1.2218   -1.6951 H       1  LIG1        0.0000
     22 H           3.9789    2.3533    0.9192 H       1  LIG1        0.0000
     23 H           4.3348    4.0305   -0.7333 H       1  LIG1        0.0000
     24 H           3.1801    3.3539   -1.6688 H       1  LIG1        0.0000
     25 H           2.7763    4.0463   -0.2461 H       1  LIG1        0.0000
     26 H           3.2803   -0.4680   -0.0343 H       1  LIG1        0.0000
     27 H           1.2220   -1.6849   -0.0206 H       1  LIG1        0.0000
     28 H          -0.8709   -0.5263    0.0083 H       1  LIG1        0.0000
     29 H          -2.7539    2.6437   -1.2772 H       1  LIG1        0.0000
     30 H          -3.0183   -0.1983   -0.2366 H       1  LIG1        0.0000
     31 H          -4.4281   -0.7888    1.8679 H       1  LIG1        0.0000
     32 H          -3.9031    0.9289    3.6665 H       1  LIG1        0.0000
     33 H          -2.4111    2.9729    3.8662 H       1  LIG1        0.0000
     34 H          -1.0369    2.8284    2.9960 H       1  LIG1        0.0000
     35 H          -2.2543    3.7695    2.4494 H       1  LIG1        0.0000
     36 H           1.1551    3.1001    0.0087 H       1  LIG1        0.0000
@<TRIPOS>BOND
     1     1     2    1
     2     2     3    1
     3     2     4    1
     4     4     5   ar
     5     5     6   ar
     6     6     7   ar
     7     7     8   ar
     8     8     9    1
     9     9    10    1
    10     9    11    1
    11    11    12    2
    12    12    13    1
    13    13    14    2
    14    14    15    1
    15    15    11    1
    16    15    16    1
    17     8    17   ar
    18    17     4   ar
    19     9    18    1
    20     1    19    1
    21     1    20    1
    22     1    21    1
    23     2    22    1
    24     3    23    1
    25     3    24    1
    26     3    25    1
    27     5    26    1
    28     6    27    1
    29     7    28    1
    30    10    29    1
    31    12    30    1
    32    13    31    1
    33    14    32    1
    34    16    33    1
    35    16    34    1
    36    16    35    1
    37    17    36    1
