@<TRIPOS>MOLECULE
*****
 36 37 0 0 0
SMALL
USER_CHARGES

@<TRIPOS>ATOM
      1 C1          3.3848    3.6789   -0.0094 C.3     1  LIG1        0.0000
      2 C2          3.6831    2.1886   -0.0218 C.3     1  LIG1        0.0000
      3 C3          4.4976    1.8246    1.2089 C.3     1  LIG1        0.0000
      4 C4          2.3771    1.4101   -0.0136 C.ar    1  LIG1        0.0000
      5 C5          2.4071    0.0194   -0.0224 C.ar    1  LIG1        0.0000
      6 C6          1.2077   -0.6850   -0.0143 C.ar    1  LIG1        0.0000
      7 C7         -0.0114   -0.0151    0.0024 C.ar    1  LIG1        0.0000
      8 C8         -0.0177    1.3760    0.0110 C.ar    1  LIG1        0.0000
      9 C9         -1.3432    2.1201    0.0262 C.3     1  LIG1        0.0000
     10 O10        -1.3442    3.1062   -0.9955 O.3     1  LIG1        0.0000
     11 C11        -2.4779    1.1386   -0.2160 C.2     1  LIG1        0.0000
     12 C12        -3.3954    0.7564    0.7141 C.2     1  LIG1        0.0000
     13 C13        -4.2542   -0.1574    0.0627 C.2     1  LIG1        0.0000
     14 C14        -3.8318   -0.2933   -1.2284 C.2     1  LIG1        0.0000
     15 N15        -2.7389    0.5063   -1.3925 N.pl3   1  LIG1        0.0000
     16 C16        -1.9715    0.6565   -2.6374 C.3     1  LIG1        0.0000
     17 C17         1.1694    2.1002    0.0028 C.ar    1  LIG1        0.0000
     18 H          -1.4678    2.5609    0.9151 H       1  LIG1        0.0000
     19 H           4.2437    4.1909   -0.0147 H       1  LIG1        0.0000
     20 H           2.8489    3.9184   -0.8190 H       1  LIG1        0.0000
     21 H           2.8653    3.9080    0.8138 H       1  LIG1        0.0000
     22 H           4.2026    1.9595   -0.8450 H       1  LIG1        0.0000
     23 H           5.3566    2.3366    1.2035 H       1  LIG1        0.0000
     24 H           3.9781    2.0537    2.0321 H       1  LIG1        0.0000
     25 H           4.6939    0.8441    1.2007 H       1  LIG1        0.0000
     26 H           3.2803   -0.4680   -0.0343 H       1  LIG1        0.0000
     27 H           1.2220   -1.6849   -0.0206 H       1  LIG1        0.0000
     28 H          -0.8709   -0.5263    0.0083 H       1  LIG1        0.0000
     29 H          -2.2162    3.5957   -0.9855 H       1  LIG1        0.0000
     30 H          -3.4506    1.0606    1.6651 H       1  LIG1        0.0000
     31 H          -5.0362   -0.6240    0.4760 H       1  LIG1        0.0000
     32 H          -4.2484   -0.8742   -1.9277 H       1  LIG1        0.0000
     33 H          -2.3749    0.0814   -3.3491 H       1  LIG1        0.0000
     34 H          -1.9934    1.6127   -2.9293 H       1  LIG1        0.0000
     35 H          -1.0240    0.3775   -2.4807 H       1  LIG1        0.0000
     36 H           1.1551    3.1001    0.0087 H       1  LIG1        0.0000
@<TRIPOS>BOND
     1     1     2    1
     2     2     3    1
     3     2     4    1
     4     4     5   ar
     5     5     6   ar
     6     6     7   ar
     7     7     8   ar
     8     8     9    1
     9     9    10    1
    10     9    11    1
    11    11    12    2
    12    12    13    1
    13    13    14    2
    14    14    15    1
    15    15    11    1
    16    15    16    1
    17     8    17   ar
    18    17     4   ar
    19     9    18    1
    20     1    19    1
    21     1    20    1
    22     1    21    1
    23     2    22    1
    24     3    23    1
    25     3    24    1
    26     3    25    1
    27     5    26    1
    28     6    27    1
    29     7    28    1
    30    10    29    1
    31    12    30    1
    32    13    31    1
    33    14    32    1
    34    16    33    1
    35    16    34    1
    36    16    35    1
    37    17    36    1
