@<TRIPOS>MOLECULE

  26   27
SMALL
USER_CHARGES
@<TRIPOS>ATOM
   1 O1           5.7696     4.4718     0.2373 O.2          1    LIG   0.0000
   2 C2           6.1637     4.5420     1.3893 C.2          1    LIG   0.0000
   3 N3           7.3393     5.1523     1.7061 N.pl3        1    LIG  -1.0000
   4 S4           7.4617     5.0098     3.3497 S.3          1    LIG   0.0000
   5 N5           6.0634     4.1953     3.6885 N.2          1    LIG   0.0000
   6 C6           5.4908     4.0215     2.5237 C.2          1    LIG   0.0000
   7 N7           4.2742     3.3552     2.4277 N.pl3        1    LIG   0.0000
   8 C8           3.1258     4.0807     1.8618 C.3          1    LIG   0.0000
   9 C9           2.1842     3.1532     1.1058 C.3          1    LIG   0.0000
  10 C10          1.8779     1.8779     1.8779 C.3          1    LIG   0.0000
  11 C11          1.0000     1.0000     1.0000 C.3          1    LIG   0.0000
  12 O12          0.6930    -0.2027     1.6898 O.3          1    LIG   0.0000
  13 C13          3.1963     1.1446     2.0849 C.3          1    LIG   0.0000
  14 C14          4.1980     1.9595     2.8906 C.3          1    LIG   0.0000
  15 H            3.4640     4.7807     1.2327 H            1    LIG   0.0000
  16 H            2.6207     4.5175     2.6061 H            1    LIG   0.0000
  17 H            1.3265     3.6377     0.9338 H            1    LIG   0.0000
  18 H            2.6082     2.9065     0.2344 H            1    LIG   0.0000
  19 H            1.4332     2.0794     2.7506 H            1    LIG   0.0000
  20 H            0.1531     1.4858     0.7838 H            1    LIG   0.0000
  21 H            1.4858     0.7838     0.1531 H            1    LIG   0.0000
  22 H            0.1157    -0.7800     1.1124 H            1    LIG   0.0000
  23 H            3.5941     0.9418     1.1901 H            1    LIG   0.0000
  24 H            3.0146     0.2895     2.5704 H            1    LIG   0.0000
  25 H            3.9209     1.9529     3.8514 H            1    LIG   0.0000
  26 H            5.1014     1.5401     2.8013 H            1    LIG   0.0000
@<TRIPOS>BOND
   1        1        2 2
   2        2        3 1
   3        3        4 1
   4        4        5 1
   5        5        6 2
   6        6        2 1
   7        6        7 1
   8        7        8 1
   9        8        9 1
  10        9       10 1
  11       10       11 1
  12       11       12 1
  13       10       13 1
  14       13       14 1
  15       14        7 1
  16        8       15 1
  17        8       16 1
  18        9       17 1
  19        9       18 1
  20       10       19 1
  21       11       20 1
  22       11       21 1
  23       12       22 1
  24       13       23 1
  25       13       24 1
  26       14       25 1
  27       14       26 1

@<TRIPOS>MOLECULE

  26   27
SMALL
USER_CHARGES
@<TRIPOS>ATOM
   1 O1           6.3057     2.8916     4.4125 O.2          1    LIG   0.0000
   2 C2           6.4385     3.7307     3.5376 C.2          1    LIG   0.0000
   3 N3           7.5583     4.5011     3.4509 N.pl3        1    LIG  -1.0000
   4 S4           7.3021     5.4755     2.1388 S.3          1    LIG   0.0000
   5 N5           5.8071     4.9552     1.6618 N.2          1    LIG   0.0000
   6 C6           5.4908     4.0215     2.5237 C.2          1    LIG   0.0000
   7 N7           4.2742     3.3552     2.4277 N.pl3        1    LIG   0.0000
   8 C8           3.1258     4.0807     1.8618 C.3          1    LIG   0.0000
   9 C9           2.1842     3.1532     1.1058 C.3          1    LIG   0.0000
  10 C10          1.8779     1.8779     1.8779 C.3          1    LIG   0.0000
  11 C11          1.0000     1.0000     1.0000 C.3          1    LIG   0.0000
  12 O12          0.6930    -0.2027     1.6898 O.3          1    LIG   0.0000
  13 C13          3.1963     1.1446     2.0849 C.3          1    LIG   0.0000
  14 C14          4.1980     1.9595     2.8906 C.3          1    LIG   0.0000
  15 H            3.4640     4.7807     1.2327 H            1    LIG   0.0000
  16 H            2.6207     4.5175     2.6061 H            1    LIG   0.0000
  17 H            1.3265     3.6377     0.9338 H            1    LIG   0.0000
  18 H            2.6082     2.9065     0.2344 H            1    LIG   0.0000
  19 H            1.4332     2.0794     2.7506 H            1    LIG   0.0000
  20 H            0.1531     1.4858     0.7838 H            1    LIG   0.0000
  21 H            1.4858     0.7838     0.1531 H            1    LIG   0.0000
  22 H            0.1157    -0.7800     1.1124 H            1    LIG   0.0000
  23 H            3.5941     0.9418     1.1901 H            1    LIG   0.0000
  24 H            3.0146     0.2895     2.5704 H            1    LIG   0.0000
  25 H            3.9209     1.9529     3.8514 H            1    LIG   0.0000
  26 H            5.1014     1.5401     2.8013 H            1    LIG   0.0000
@<TRIPOS>BOND
   1        1        2 2
   2        2        3 1
   3        3        4 1
   4        4        5 1
   5        5        6 2
   6        6        2 1
   7        6        7 1
   8        7        8 1
   9        8        9 1
  10        9       10 1
  11       10       11 1
  12       11       12 1
  13       10       13 1
  14       13       14 1
  15       14        7 1
  16        8       15 1
  17        8       16 1
  18        9       17 1
  19        9       18 1
  20       10       19 1
  21       11       20 1
  22       11       21 1
  23       12       22 1
  24       13       23 1
  25       13       24 1
  26       14       25 1
  27       14       26 1

@<TRIPOS>MOLECULE

  26   27
SMALL
USER_CHARGES
@<TRIPOS>ATOM
   1 O1           4.7718     5.7626     3.9237 O.2          1    LIG   0.0000
   2 C2           5.6497     5.2073     3.2848 C.2          1    LIG   0.0000
   3 N3           6.9196     5.6978     3.2400 N.pl3        1    LIG  -1.0000
   4 S4           7.7488     4.6403     2.2752 S.3          1    LIG   0.0000
   5 N5           6.5499     3.5641     1.9042 N.2          1    LIG   0.0000
   6 C6           5.4908     4.0215     2.5237 C.2          1    LIG   0.0000
   7 N7           4.2742     3.3552     2.4277 N.pl3        1    LIG   0.0000
   8 C8           3.1258     4.0807     1.8618 C.3          1    LIG   0.0000
   9 C9           2.1842     3.1532     1.1058 C.3          1    LIG   0.0000
  10 C10          1.8779     1.8779     1.8779 C.3          1    LIG   0.0000
  11 C11          1.0000     1.0000     1.0000 C.3          1    LIG   0.0000
  12 O12          0.6930    -0.2027     1.6898 O.3          1    LIG   0.0000
  13 C13          3.1963     1.1446     2.0849 C.3          1    LIG   0.0000
  14 C14          4.1980     1.9595     2.8906 C.3          1    LIG   0.0000
  15 H            3.4640     4.7807     1.2327 H            1    LIG   0.0000
  16 H            2.6207     4.5175     2.6061 H            1    LIG   0.0000
  17 H            1.3265     3.6377     0.9338 H            1    LIG   0.0000
  18 H            2.6082     2.9065     0.2344 H            1    LIG   0.0000
  19 H            1.4332     2.0794     2.7506 H            1    LIG   0.0000
  20 H            0.1531     1.4858     0.7838 H            1    LIG   0.0000
  21 H            1.4858     0.7838     0.1531 H            1    LIG   0.0000
  22 H            0.1157    -0.7800     1.1124 H            1    LIG   0.0000
  23 H            3.5941     0.9418     1.1901 H            1    LIG   0.0000
  24 H            3.0146     0.2895     2.5704 H            1    LIG   0.0000
  25 H            3.9209     1.9529     3.8514 H            1    LIG   0.0000
  26 H            5.1014     1.5401     2.8013 H            1    LIG   0.0000
@<TRIPOS>BOND
   1        1        2 2
   2        2        3 1
   3        3        4 1
   4        4        5 1
   5        5        6 2
   6        6        2 1
   7        6        7 1
   8        7        8 1
   9        8        9 1
  10        9       10 1
  11       10       11 1
  12       11       12 1
  13       10       13 1
  14       13       14 1
  15       14        7 1
  16        8       15 1
  17        8       16 1
  18        9       17 1
  19        9       18 1
  20       10       19 1
  21       11       20 1
  22       11       21 1
  23       12       22 1
  24       13       23 1
  25       13       24 1
  26       14       25 1
  27       14       26 1

@<TRIPOS>MOLECULE

  26   27
SMALL
USER_CHARGES
@<TRIPOS>ATOM
   1 O1           5.7179     2.0966     2.4321 O.2          1    LIG   0.0000
   2 C2           5.7111     2.7675     3.4505 C.2          1    LIG   0.0000
   3 N3           6.8309     2.9247     4.2097 N.pl3        1    LIG  -1.0000
   4 S4           6.3594     3.8936     5.4650 S.3          1    LIG   0.0000
   5 N5           4.7685     4.1317     5.0836 N.2          1    LIG   0.0000
   6 C6           4.5879     3.4538     3.9778 C.2          1    LIG   0.0000
   7 N7           3.3411     3.4249     3.3633 N.pl3        1    LIG   0.0000
   8 C8           3.2607     3.9452     1.9913 C.3          1    LIG   0.0000
   9 C9           2.2305     3.1792     1.1746 C.3          1    LIG   0.0000
  10 C10          1.8776     1.8776     1.8776 C.3          1    LIG   0.0000
  11 C11          1.0000     1.0000     1.0000 C.3          1    LIG   0.0000
  12 O12          0.6930    -0.2027     1.6898 O.3          1    LIG   0.0000
  13 C13          1.1846     2.2403     3.1814 C.3          1    LIG   0.0000
  14 C14          2.2067     2.8664     4.1158 C.3          1    LIG   0.0000
  15 H            4.1560     3.8552     1.5548 H            1    LIG   0.0000
  16 H            3.0007     4.9103     2.0226 H            1    LIG   0.0000
  17 H            1.4060     3.7362     1.0744 H            1    LIG   0.0000
  18 H            2.6076     2.9765     0.2710 H            1    LIG   0.0000
  19 H            2.7218     1.3840     2.0867 H            1    LIG   0.0000
  20 H            0.1531     1.4858     0.7838 H            1    LIG   0.0000
  21 H            1.4858     0.7838     0.1531 H            1    LIG   0.0000
  22 H            0.1157    -0.7800     1.1124 H            1    LIG   0.0000
  23 H            0.8045     1.4162     3.6015 H            1    LIG   0.0000
  24 H            0.4484     2.8927     3.0015 H            1    LIG   0.0000
  25 H            1.7677     3.5990     4.6361 H            1    LIG   0.0000
  26 H            2.5451     2.1671     4.7453 H            1    LIG   0.0000
@<TRIPOS>BOND
   1        1        2 2
   2        2        3 1
   3        3        4 1
   4        4        5 1
   5        5        6 2
   6        6        2 1
   7        6        7 1
   8        7        8 1
   9        8        9 1
  10        9       10 1
  11       10       11 1
  12       11       12 1
  13       10       13 1
  14       13       14 1
  15       14        7 1
  16        8       15 1
  17        8       16 1
  18        9       17 1
  19        9       18 1
  20       10       19 1
  21       11       20 1
  22       11       21 1
  23       12       22 1
  24       13       23 1
  25       13       24 1
  26       14       25 1
  27       14       26 1

@<TRIPOS>MOLECULE

  26   27
SMALL
USER_CHARGES
@<TRIPOS>ATOM
   1 O1           4.7966     1.1453     4.3460 O.2          1    LIG   0.0000
   2 C2           5.2370     2.2790     4.4353 C.2          1    LIG   0.0000
   3 N3           6.4456     2.5326     5.0097 N.pl3        1    LIG  -1.0000
   4 S4           6.6264     4.1739     4.9101 S.3          1    LIG   0.0000
   5 N5           5.2159     4.5892     4.1544 N.2          1    LIG   0.0000
   6 C6           4.5879     3.4538     3.9778 C.2          1    LIG   0.0000
   7 N7           3.3411     3.4249     3.3633 N.pl3        1    LIG   0.0000
   8 C8           3.2607     3.9452     1.9913 C.3          1    LIG   0.0000
   9 C9           2.2305     3.1792     1.1746 C.3          1    LIG   0.0000
  10 C10          1.8776     1.8776     1.8776 C.3          1    LIG   0.0000
  11 C11          1.0000     1.0000     1.0000 C.3          1    LIG   0.0000
  12 O12          0.6930    -0.2027     1.6898 O.3          1    LIG   0.0000
  13 C13          1.1846     2.2403     3.1814 C.3          1    LIG   0.0000
  14 C14          2.2067     2.8664     4.1158 C.3          1    LIG   0.0000
  15 H            4.1560     3.8552     1.5548 H            1    LIG   0.0000
  16 H            3.0007     4.9103     2.0226 H            1    LIG   0.0000
  17 H            1.4060     3.7362     1.0744 H            1    LIG   0.0000
  18 H            2.6076     2.9765     0.2710 H            1    LIG   0.0000
  19 H            2.7218     1.3840     2.0867 H            1    LIG   0.0000
  20 H            0.1531     1.4858     0.7838 H            1    LIG   0.0000
  21 H            1.4858     0.7838     0.1531 H            1    LIG   0.0000
  22 H            0.1157    -0.7800     1.1124 H            1    LIG   0.0000
  23 H            0.8045     1.4162     3.6015 H            1    LIG   0.0000
  24 H            0.4484     2.8927     3.0015 H            1    LIG   0.0000
  25 H            1.7677     3.5990     4.6361 H            1    LIG   0.0000
  26 H            2.5451     2.1671     4.7453 H            1    LIG   0.0000
@<TRIPOS>BOND
   1        1        2 2
   2        2        3 1
   3        3        4 1
   4        4        5 1
   5        5        6 2
   6        6        2 1
   7        6        7 1
   8        7        8 1
   9        8        9 1
  10        9       10 1
  11       10       11 1
  12       11       12 1
  13       10       13 1
  14       13       14 1
  15       14        7 1
  16        8       15 1
  17        8       16 1
  18        9       17 1
  19        9       18 1
  20       10       19 1
  21       11       20 1
  22       11       21 1
  23       12       22 1
  24       13       23 1
  25       13       24 1
  26       14       25 1
  27       14       26 1

@<TRIPOS>MOLECULE

  26   27
SMALL
USER_CHARGES
@<TRIPOS>ATOM
   1 O1           3.9373     2.5087     6.0252 O.2          1    LIG   0.0000
   2 C2           4.7952     2.9811     5.2986 C.2          1    LIG   0.0000
   3 N3           6.0885     3.1053     5.7074 N.pl3        1    LIG  -1.0000
   4 S4           6.8772     3.7809     4.4197 S.3          1    LIG   0.0000
   5 N5           5.6314     3.9252     3.3425 N.2          1    LIG   0.0000
   6 C6           4.5879     3.4538     3.9778 C.2          1    LIG   0.0000
   7 N7           3.3411     3.4249     3.3633 N.pl3        1    LIG   0.0000
   8 C8           3.2607     3.9452     1.9913 C.3          1    LIG   0.0000
   9 C9           2.2305     3.1792     1.1746 C.3          1    LIG   0.0000
  10 C10          1.8776     1.8776     1.8776 C.3          1    LIG   0.0000
  11 C11          1.0000     1.0000     1.0000 C.3          1    LIG   0.0000
  12 O12          0.6930    -0.2027     1.6898 O.3          1    LIG   0.0000
  13 C13          1.1846     2.2403     3.1814 C.3          1    LIG   0.0000
  14 C14          2.2067     2.8664     4.1158 C.3          1    LIG   0.0000
  15 H            4.1560     3.8552     1.5548 H            1    LIG   0.0000
  16 H            3.0007     4.9103     2.0226 H            1    LIG   0.0000
  17 H            1.4060     3.7362     1.0744 H            1    LIG   0.0000
  18 H            2.6076     2.9765     0.2710 H            1    LIG   0.0000
  19 H            2.7218     1.3840     2.0867 H            1    LIG   0.0000
  20 H            0.1531     1.4858     0.7838 H            1    LIG   0.0000
  21 H            1.4858     0.7838     0.1531 H            1    LIG   0.0000
  22 H            0.1157    -0.7800     1.1124 H            1    LIG   0.0000
  23 H            0.8045     1.4162     3.6015 H            1    LIG   0.0000
  24 H            0.4484     2.8927     3.0015 H            1    LIG   0.0000
  25 H            1.7677     3.5990     4.6361 H            1    LIG   0.0000
  26 H            2.5451     2.1671     4.7453 H            1    LIG   0.0000
@<TRIPOS>BOND
   1        1        2 2
   2        2        3 1
   3        3        4 1
   4        4        5 1
   5        5        6 2
   6        6        2 1
   7        6        7 1
   8        7        8 1
   9        8        9 1
  10        9       10 1
  11       10       11 1
  12       11       12 1
  13       10       13 1
  14       13       14 1
  15       14        7 1
  16        8       15 1
  17        8       16 1
  18        9       17 1
  19        9       18 1
  20       10       19 1
  21       11       20 1
  22       11       21 1
  23       12       22 1
  24       13       23 1
  25       13       24 1
  26       14       25 1
  27       14       26 1

@<TRIPOS>MOLECULE

  26   27
SMALL
USER_CHARGES
@<TRIPOS>ATOM
   1 O1           3.9994     4.8235     5.7906 O.2          1    LIG   0.0000
   2 C2           4.8276     4.1716     5.1770 C.2          1    LIG   0.0000
   3 N3           6.1166     4.0701     5.6050 N.pl3        1    LIG  -1.0000
   4 S4           6.8610     3.1076     4.4843 S.3          1    LIG   0.0000
   5 N5           5.5996     2.8035     3.4598 N.2          1    LIG   0.0000
   6 C6           4.5879     3.4538     3.9778 C.2          1    LIG   0.0000
   7 N7           3.3411     3.4249     3.3633 N.pl3        1    LIG   0.0000
   8 C8           3.2607     3.9452     1.9913 C.3          1    LIG   0.0000
   9 C9           2.2305     3.1792     1.1746 C.3          1    LIG   0.0000
  10 C10          1.8776     1.8776     1.8776 C.3          1    LIG   0.0000
  11 C11          1.0000     1.0000     1.0000 C.3          1    LIG   0.0000
  12 O12          0.6930    -0.2027     1.6898 O.3          1    LIG   0.0000
  13 C13          1.1846     2.2403     3.1814 C.3          1    LIG   0.0000
  14 C14          2.2067     2.8664     4.1158 C.3          1    LIG   0.0000
  15 H            4.1560     3.8552     1.5548 H            1    LIG   0.0000
  16 H            3.0007     4.9103     2.0226 H            1    LIG   0.0000
  17 H            1.4060     3.7362     1.0744 H            1    LIG   0.0000
  18 H            2.6076     2.9765     0.2710 H            1    LIG   0.0000
  19 H            2.7218     1.3840     2.0867 H            1    LIG   0.0000
  20 H            0.1531     1.4858     0.7838 H            1    LIG   0.0000
  21 H            1.4858     0.7838     0.1531 H            1    LIG   0.0000
  22 H            0.1157    -0.7800     1.1124 H            1    LIG   0.0000
  23 H            0.8045     1.4162     3.6015 H            1    LIG   0.0000
  24 H            0.4484     2.8927     3.0015 H            1    LIG   0.0000
  25 H            1.7677     3.5990     4.6361 H            1    LIG   0.0000
  26 H            2.5451     2.1671     4.7453 H            1    LIG   0.0000
@<TRIPOS>BOND
   1        1        2 2
   2        2        3 1
   3        3        4 1
   4        4        5 1
   5        5        6 2
   6        6        2 1
   7        6        7 1
   8        7        8 1
   9        8        9 1
  10        9       10 1
  11       10       11 1
  12       11       12 1
  13       10       13 1
  14       13       14 1
  15       14        7 1
  16        8       15 1
  17        8       16 1
  18        9       17 1
  19        9       18 1
  20       10       19 1
  21       11       20 1
  22       11       21 1
  23       12       22 1
  24       13       23 1
  25       13       24 1
  26       14       25 1
  27       14       26 1

@<TRIPOS>MOLECULE

  26   27
SMALL
USER_CHARGES
@<TRIPOS>ATOM
   1 O1           4.9208     5.7748     3.8766 O.2          1    LIG   0.0000
   2 C2           5.3017     4.6601     4.1922 C.2          1    LIG   0.0000
   3 N3           6.5018     4.4623     4.8050 N.pl3        1    LIG  -1.0000
   4 S4           6.5940     2.8273     5.0392 S.3          1    LIG   0.0000
   5 N5           5.1522     2.3459     4.3890 N.2          1    LIG   0.0000
   6 C6           4.5879     3.4538     3.9778 C.2          1    LIG   0.0000
   7 N7           3.3411     3.4249     3.3633 N.pl3        1    LIG   0.0000
   8 C8           3.2607     3.9452     1.9913 C.3          1    LIG   0.0000
   9 C9           2.2305     3.1792     1.1746 C.3          1    LIG   0.0000
  10 C10          1.8776     1.8776     1.8776 C.3          1    LIG   0.0000
  11 C11          1.0000     1.0000     1.0000 C.3          1    LIG   0.0000
  12 O12          0.6930    -0.2027     1.6898 O.3          1    LIG   0.0000
  13 C13          1.1846     2.2403     3.1814 C.3          1    LIG   0.0000
  14 C14          2.2067     2.8664     4.1158 C.3          1    LIG   0.0000
  15 H            4.1560     3.8552     1.5548 H            1    LIG   0.0000
  16 H            3.0007     4.9103     2.0226 H            1    LIG   0.0000
  17 H            1.4060     3.7362     1.0744 H            1    LIG   0.0000
  18 H            2.6076     2.9765     0.2710 H            1    LIG   0.0000
  19 H            2.7218     1.3840     2.0867 H            1    LIG   0.0000
  20 H            0.1531     1.4858     0.7838 H            1    LIG   0.0000
  21 H            1.4858     0.7838     0.1531 H            1    LIG   0.0000
  22 H            0.1157    -0.7800     1.1124 H            1    LIG   0.0000
  23 H            0.8045     1.4162     3.6015 H            1    LIG   0.0000
  24 H            0.4484     2.8927     3.0015 H            1    LIG   0.0000
  25 H            1.7677     3.5990     4.6361 H            1    LIG   0.0000
  26 H            2.5451     2.1671     4.7453 H            1    LIG   0.0000
@<TRIPOS>BOND
   1        1        2 2
   2        2        3 1
   3        3        4 1
   4        4        5 1
   5        5        6 2
   6        6        2 1
   7        6        7 1
   8        7        8 1
   9        8        9 1
  10        9       10 1
  11       10       11 1
  12       11       12 1
  13       10       13 1
  14       13       14 1
  15       14        7 1
  16        8       15 1
  17        8       16 1
  18        9       17 1
  19        9       18 1
  20       10       19 1
  21       11       20 1
  22       11       21 1
  23       12       22 1
  24       13       23 1
  25       13       24 1
  26       14       25 1
  27       14       26 1

@<TRIPOS>MOLECULE

  26   27
SMALL
USER_CHARGES
@<TRIPOS>ATOM
   1 O1           4.7986     5.8290     3.9354 O.2          1    LIG   0.0000
   2 C2           4.1595     5.2202     4.7770 C.2          1    LIG   0.0000
   3 N3           4.0604     5.6668     6.0599 N.pl3        1    LIG  -1.0000
   4 S4           3.1164     4.5458     6.8273 S.3          1    LIG   0.0000
   5 N5           2.8175     3.4983     5.5837 N.2          1    LIG   0.0000
   6 C6           3.4552     4.0087     4.5601 C.2          1    LIG   0.0000
   7 N7           3.4265     3.3748     3.3230 N.pl3        1    LIG   0.0000
   8 C8           2.8643     4.1212     2.1878 C.3          1    LIG   0.0000
   9 C9           2.2309     3.1790     1.1757 C.3          1    LIG   0.0000
  10 C10          1.8777     1.8777     1.8777 C.3          1    LIG   0.0000
  11 C11          1.0000     1.0000     1.0000 C.3          1    LIG   0.0000
  12 O12          0.6930    -0.2027     1.6898 O.3          1    LIG   0.0000
  13 C13          3.1808     1.1826     2.2343 C.3          1    LIG   0.0000
  14 C14          3.9524     2.0029     3.2554 C.3          1    LIG   0.0000
  15 H            3.5955     4.6370     1.7414 H            1    LIG   0.0000
  16 H            2.1679     4.7544     2.5255 H            1    LIG   0.0000
  17 H            1.4023     3.5951     0.8009 H            1    LIG   0.0000
  18 H            2.8771     2.9972     0.4345 H            1    LIG   0.0000
  19 H            1.3830     2.0892     2.7207 H            1    LIG   0.0000
  20 H            0.1531     1.4858     0.7838 H            1    LIG   0.0000
  21 H            1.4858     0.7838     0.1531 H            1    LIG   0.0000
  22 H            0.1157    -0.7800     1.1124 H            1    LIG   0.0000
  23 H            3.7352     1.0768     1.4088 H            1    LIG   0.0000
  24 H            2.9799     0.2815     2.6186 H            1    LIG   0.0000
  25 H            3.8663     1.5735     4.1544 H            1    LIG   0.0000
  26 H            4.9164     2.0333     2.9914 H            1    LIG   0.0000
@<TRIPOS>BOND
   1        1        2 2
   2        2        3 1
   3        3        4 1
   4        4        5 1
   5        5        6 2
   6        6        2 1
   7        6        7 1
   8        7        8 1
   9        8        9 1
  10        9       10 1
  11       10       11 1
  12       11       12 1
  13       10       13 1
  14       13       14 1
  15       14        7 1
  16        8       15 1
  17        8       16 1
  18        9       17 1
  19        9       18 1
  20       10       19 1
  21       11       20 1
  22       11       21 1
  23       12       22 1
  24       13       23 1
  25       13       24 1
  26       14       25 1
  27       14       26 1

@<TRIPOS>MOLECULE

  26   27
SMALL
USER_CHARGES
@<TRIPOS>ATOM
   1 O1           5.7793     3.9414     4.8800 O.2          1    LIG   0.0000
   2 C2           4.6631     4.2489     5.2630 C.2          1    LIG   0.0000
   3 N3           4.4649     4.8777     6.4549 N.pl3        1    LIG  -1.0000
   4 S4           2.8276     5.0930     6.5536 S.3          1    LIG   0.0000
   5 N5           2.3457     4.4147     5.1250 N.2          1    LIG   0.0000
   6 C6           3.4552     4.0087     4.5601 C.2          1    LIG   0.0000
   7 N7           3.4265     3.3748     3.3230 N.pl3        1    LIG   0.0000
   8 C8           2.8643     4.1212     2.1878 C.3          1    LIG   0.0000
   9 C9           2.2309     3.1790     1.1757 C.3          1    LIG   0.0000
  10 C10          1.8777     1.8777     1.8777 C.3          1    LIG   0.0000
  11 C11          1.0000     1.0000     1.0000 C.3          1    LIG   0.0000
  12 O12          0.6930    -0.2027     1.6898 O.3          1    LIG   0.0000
  13 C13          3.1808     1.1826     2.2343 C.3          1    LIG   0.0000
  14 C14          3.9524     2.0029     3.2554 C.3          1    LIG   0.0000
  15 H            3.5955     4.6370     1.7414 H            1    LIG   0.0000
  16 H            2.1679     4.7544     2.5255 H            1    LIG   0.0000
  17 H            1.4023     3.5951     0.8009 H            1    LIG   0.0000
  18 H            2.8771     2.9972     0.4345 H            1    LIG   0.0000
  19 H            1.3830     2.0892     2.7207 H            1    LIG   0.0000
  20 H            0.1531     1.4858     0.7838 H            1    LIG   0.0000
  21 H            1.4858     0.7838     0.1531 H            1    LIG   0.0000
  22 H            0.1157    -0.7800     1.1124 H            1    LIG   0.0000
  23 H            3.7352     1.0768     1.4088 H            1    LIG   0.0000
  24 H            2.9799     0.2815     2.6186 H            1    LIG   0.0000
  25 H            3.8663     1.5735     4.1544 H            1    LIG   0.0000
  26 H            4.9164     2.0333     2.9914 H            1    LIG   0.0000
@<TRIPOS>BOND
   1        1        2 2
   2        2        3 1
   3        3        4 1
   4        4        5 1
   5        5        6 2
   6        6        2 1
   7        6        7 1
   8        7        8 1
   9        8        9 1
  10        9       10 1
  11       10       11 1
  12       11       12 1
  13       10       13 1
  14       13       14 1
  15       14        7 1
  16        8       15 1
  17        8       16 1
  18        9       17 1
  19        9       18 1
  20       10       19 1
  21       11       20 1
  22       11       21 1
  23       12       22 1
  24       13       23 1
  25       13       24 1
  26       14       25 1
  27       14       26 1

@<TRIPOS>MOLECULE

  26   27
SMALL
USER_CHARGES
@<TRIPOS>ATOM
   1 O1           3.2556     2.0852     5.8899 O.2          1    LIG   0.0000
   2 C2           3.3641     3.2951     5.7820 C.2          1    LIG   0.0000
   3 N3           3.4078     4.1084     6.8736 N.pl3        1    LIG  -1.0000
   4 S4           3.5576     5.6366     6.2580 S.3          1    LIG   0.0000
   5 N5           3.5726     5.3107     4.6373 N.2          1    LIG   0.0000
   6 C6           3.4552     4.0087     4.5601 C.2          1    LIG   0.0000
   7 N7           3.4265     3.3748     3.3230 N.pl3        1    LIG   0.0000
   8 C8           2.8643     4.1212     2.1878 C.3          1    LIG   0.0000
   9 C9           2.2309     3.1790     1.1757 C.3          1    LIG   0.0000
  10 C10          1.8777     1.8777     1.8777 C.3          1    LIG   0.0000
  11 C11          1.0000     1.0000     1.0000 C.3          1    LIG   0.0000
  12 O12          0.6930    -0.2027     1.6898 O.3          1    LIG   0.0000
  13 C13          3.1808     1.1826     2.2343 C.3          1    LIG   0.0000
  14 C14          3.9524     2.0029     3.2554 C.3          1    LIG   0.0000
  15 H            3.5955     4.6370     1.7414 H            1    LIG   0.0000
  16 H            2.1679     4.7544     2.5255 H            1    LIG   0.0000
  17 H            1.4023     3.5951     0.8009 H            1    LIG   0.0000
  18 H            2.8771     2.9972     0.4345 H            1    LIG   0.0000
  19 H            1.3830     2.0892     2.7207 H            1    LIG   0.0000
  20 H            0.1531     1.4858     0.7838 H            1    LIG   0.0000
  21 H            1.4858     0.7838     0.1531 H            1    LIG   0.0000
  22 H            0.1157    -0.7800     1.1124 H            1    LIG   0.0000
  23 H            3.7352     1.0768     1.4088 H            1    LIG   0.0000
  24 H            2.9799     0.2815     2.6186 H            1    LIG   0.0000
  25 H            3.8663     1.5735     4.1544 H            1    LIG   0.0000
  26 H            4.9164     2.0333     2.9914 H            1    LIG   0.0000
@<TRIPOS>BOND
   1        1        2 2
   2        2        3 1
   3        3        4 1
   4        4        5 1
   5        5        6 2
   6        6        2 1
   7        6        7 1
   8        7        8 1
   9        8        9 1
  10        9       10 1
  11       10       11 1
  12       11       12 1
  13       10       13 1
  14       13       14 1
  15       14        7 1
  16        8       15 1
  17        8       16 1
  18        9       17 1
  19        9       18 1
  20       10       19 1
  21       11       20 1
  22       11       21 1
  23       12       22 1
  24       13       23 1
  25       13       24 1
  26       14       25 1
  27       14       26 1

@<TRIPOS>MOLECULE

  26   27
SMALL
USER_CHARGES
@<TRIPOS>ATOM
   1 O1           1.1436     4.3515     4.7775 O.2          1    LIG   0.0000
   2 C2           2.2787     4.4616     5.2095 C.2          1    LIG   0.0000
   3 N3           2.5324     5.0576     6.4075 N.pl3        1    LIG  -1.0000
   4 S4           4.1760     4.9810     6.5796 S.3          1    LIG   0.0000
   5 N5           4.5922     4.2090     5.1782 N.2          1    LIG   0.0000
   6 C6           3.4552     4.0087     4.5601 C.2          1    LIG   0.0000
   7 N7           3.4265     3.3748     3.3230 N.pl3        1    LIG   0.0000
   8 C8           2.8643     4.1212     2.1878 C.3          1    LIG   0.0000
   9 C9           2.2309     3.1790     1.1757 C.3          1    LIG   0.0000
  10 C10          1.8777     1.8777     1.8777 C.3          1    LIG   0.0000
  11 C11          1.0000     1.0000     1.0000 C.3          1    LIG   0.0000
  12 O12          0.6930    -0.2027     1.6898 O.3          1    LIG   0.0000
  13 C13          3.1808     1.1826     2.2343 C.3          1    LIG   0.0000
  14 C14          3.9524     2.0029     3.2554 C.3          1    LIG   0.0000
  15 H            3.5955     4.6370     1.7414 H            1    LIG   0.0000
  16 H            2.1679     4.7544     2.5255 H            1    LIG   0.0000
  17 H            1.4023     3.5951     0.8009 H            1    LIG   0.0000
  18 H            2.8771     2.9972     0.4345 H            1    LIG   0.0000
  19 H            1.3830     2.0892     2.7207 H            1    LIG   0.0000
  20 H            0.1531     1.4858     0.7838 H            1    LIG   0.0000
  21 H            1.4858     0.7838     0.1531 H            1    LIG   0.0000
  22 H            0.1157    -0.7800     1.1124 H            1    LIG   0.0000
  23 H            3.7352     1.0768     1.4088 H            1    LIG   0.0000
  24 H            2.9799     0.2815     2.6186 H            1    LIG   0.0000
  25 H            3.8663     1.5735     4.1544 H            1    LIG   0.0000
  26 H            4.9164     2.0333     2.9914 H            1    LIG   0.0000
@<TRIPOS>BOND
   1        1        2 2
   2        2        3 1
   3        3        4 1
   4        4        5 1
   5        5        6 2
   6        6        2 1
   7        6        7 1
   8        7        8 1
   9        8        9 1
  10        9       10 1
  11       10       11 1
  12       11       12 1
  13       10       13 1
  14       13       14 1
  15       14        7 1
  16        8       15 1
  17        8       16 1
  18        9       17 1
  19        9       18 1
  20       10       19 1
  21       11       20 1
  22       11       21 1
  23       12       22 1
  24       13       23 1
  25       13       24 1
  26       14       25 1
  27       14       26 1

@<TRIPOS>MOLECULE

  26   27
SMALL
USER_CHARGES
@<TRIPOS>ATOM
   1 O1           6.7084    -0.0072     1.5981 O.2          1    LIG   0.0000
   2 C2           7.0576     1.1569     1.4962 C.2          1    LIG   0.0000
   3 N3           8.3698     1.5008     1.3740 N.pl3        1    LIG  -1.0000
   4 S4           8.3671     3.1517     1.2666 S.3          1    LIG   0.0000
   5 N5           6.7459     3.4597     1.3673 N.2          1    LIG   0.0000
   6 C6           6.1917     2.2797     1.4914 C.2          1    LIG   0.0000
   7 N7           4.8117     2.1570     1.6088 N.pl3        1    LIG   0.0000
   8 C8           3.9162     3.3227     1.6036 C.3          1    LIG   0.0000
   9 C9           2.5938     2.8859     0.9918 C.3          1    LIG   0.0000
  10 C10          1.8782     1.8782     1.8782 C.3          1    LIG   0.0000
  11 C11          1.0000     1.0000     1.0000 C.3          1    LIG   0.0000
  12 O12          0.6930    -0.2027     1.6898 O.3          1    LIG   0.0000
  13 C13          2.9305     1.0676     2.6163 C.3          1    LIG   0.0000
  14 C14          4.1627     0.8453     1.7505 C.3          1    LIG   0.0000
  15 H            4.3176     4.0583     1.0579 H            1    LIG   0.0000
  16 H            3.7693     3.6437     2.5392 H            1    LIG   0.0000
  17 H            2.0090     3.6885     0.8739 H            1    LIG   0.0000
  18 H            2.7699     2.4679     0.1006 H            1    LIG   0.0000
  19 H            1.3072     2.3637     2.5402 H            1    LIG   0.0000
  20 H            0.1531     1.4858     0.7838 H            1    LIG   0.0000
  21 H            1.4858     0.7838     0.1531 H            1    LIG   0.0000
  22 H            0.1157    -0.7800     1.1124 H            1    LIG   0.0000
  23 H            2.5429     0.1802     2.8658 H            1    LIG   0.0000
  24 H            3.1986     1.5591     3.4450 H            1    LIG   0.0000
  25 H            4.7838     0.1980     2.1924 H            1    LIG   0.0000
  26 H            3.8963     0.4924     0.8536 H            1    LIG   0.0000
@<TRIPOS>BOND
   1        1        2 2
   2        2        3 1
   3        3        4 1
   4        4        5 1
   5        5        6 2
   6        6        2 1
   7        6        7 1
   8        7        8 1
   9        8        9 1
  10        9       10 1
  11       10       11 1
  12       11       12 1
  13       10       13 1
  14       13       14 1
  15       14        7 1
  16        8       15 1
  17        8       16 1
  18        9       17 1
  19        9       18 1
  20       10       19 1
  21       11       20 1
  22       11       21 1
  23       12       22 1
  24       13       23 1
  25       13       24 1
  26       14       25 1
  27       14       26 1

@<TRIPOS>MOLECULE

  26   27
SMALL
USER_CHARGES
@<TRIPOS>ATOM
   1 O1           6.2318     3.7770    -0.2544 O.2          1    LIG   0.0000
   2 C2           6.8151     3.0251     0.5083 C.2          1    LIG   0.0000
   3 N3           8.1744     2.9430     0.5298 N.pl3        1    LIG  -1.0000
   4 S4           8.5129     1.8194     1.6959 S.3          1    LIG   0.0000
   5 N5           6.9851     1.4238     2.1886 N.2          1    LIG   0.0000
   6 C6           6.1966     2.1590     1.4453 C.2          1    LIG   0.0000
   7 N7           4.8158     2.0797     1.5882 N.pl3        1    LIG   0.0000
   8 C8           3.8992     2.3252     0.4662 C.3          1    LIG   0.0000
   9 C9           2.6278     2.9144     1.0564 C.3          1    LIG   0.0000
  10 C10          1.8780     1.8780     1.8780 C.3          1    LIG   0.0000
  11 C11          1.0000     1.0000     1.0000 C.3          1    LIG   0.0000
  12 O12          0.6930    -0.2027     1.6898 O.3          1    LIG   0.0000
  13 C13          2.9047     0.9837     2.5518 C.3          1    LIG   0.0000
  14 C14          4.1842     1.7423     2.8725 C.3          1    LIG   0.0000
  15 H            3.6943     1.4671    -0.0048 H            1    LIG   0.0000
  16 H            4.3098     2.9696    -0.1789 H            1    LIG   0.0000
  17 H            2.8676     3.6869     1.6444 H            1    LIG   0.0000
  18 H            2.0386     3.2314     0.3132 H            1    LIG   0.0000
  19 H            1.3183     2.3337     2.5701 H            1    LIG   0.0000
  20 H            0.1531     1.4858     0.7838 H            1    LIG   0.0000
  21 H            1.4858     0.7838     0.1531 H            1    LIG   0.0000
  22 H            0.1157    -0.7800     1.1124 H            1    LIG   0.0000
  23 H            3.1231     0.2228     1.9408 H            1    LIG   0.0000
  24 H            2.5168     0.6278     3.4020 H            1    LIG   0.0000
  25 H            3.9707     2.5769     3.3802 H            1    LIG   0.0000
  26 H            4.7966     1.1686     3.4164 H            1    LIG   0.0000
@<TRIPOS>BOND
   1        1        2 2
   2        2        3 1
   3        3        4 1
   4        4        5 1
   5        5        6 2
   6        6        2 1
   7        6        7 1
   8        7        8 1
   9        8        9 1
  10        9       10 1
  11       10       11 1
  12       11       12 1
  13       10       13 1
  14       13       14 1
  15       14        7 1
  16        8       15 1
  17        8       16 1
  18        9       17 1
  19        9       18 1
  20       10       19 1
  21       11       20 1
  22       11       21 1
  23       12       22 1
  24       13       23 1
  25       13       24 1
  26       14       25 1
  27       14       26 1

