@<TRIPOS>MOLECULE
*****
 26 27 0 0 0
SMALL
USER_CHARGES

@<TRIPOS>ATOM
      1 O1          6.7084   -0.0072    1.5981 O.2     1  LIG1        0.0000
      2 C2          7.0576    1.1569    1.4962 C.2     1  LIG1        0.0000
      3 N3          8.3698    1.5008    1.3740 N.am    1  LIG1       -1.0000
      4 S4          8.3671    3.1517    1.2666 S.3     1  LIG1        0.0000
      5 N5          6.7459    3.4597    1.3673 N.2     1  LIG1        0.0000
      6 C6          6.1917    2.2797    1.4914 C.2     1  LIG1        0.0000
      7 N7          4.8117    2.1570    1.6088 N.pl3   1  LIG1        0.0000
      8 C8          3.9162    3.3227    1.6036 C.3     1  LIG1        0.0000
      9 C9          2.5938    2.8859    0.9918 C.3     1  LIG1        0.0000
     10 C10         1.8782    1.8782    1.8782 C.3     1  LIG1        0.0000
     11 C11         1.0000    1.0000    1.0000 C.3     1  LIG1        0.0000
     12 O12         0.6930   -0.2027    1.6898 O.3     1  LIG1        0.0000
     13 C13         2.9305    1.0676    2.6163 C.3     1  LIG1        0.0000
     14 C14         4.1627    0.8453    1.7505 C.3     1  LIG1        0.0000
     15 H           4.3176    4.0583    1.0579 H       1  LIG1        0.0000
     16 H           3.7693    3.6437    2.5392 H       1  LIG1        0.0000
     17 H           2.0090    3.6885    0.8739 H       1  LIG1        0.0000
     18 H           2.7699    2.4679    0.1006 H       1  LIG1        0.0000
     19 H           1.3072    2.3637    2.5402 H       1  LIG1        0.0000
     20 H           0.1531    1.4858    0.7838 H       1  LIG1        0.0000
     21 H           1.4858    0.7838    0.1531 H       1  LIG1        0.0000
     22 H           0.1157   -0.7800    1.1124 H       1  LIG1        0.0000
     23 H           2.5429    0.1802    2.8658 H       1  LIG1        0.0000
     24 H           3.1986    1.5591    3.4450 H       1  LIG1        0.0000
     25 H           4.7838    0.1980    2.1924 H       1  LIG1        0.0000
     26 H           3.8963    0.4924    0.8536 H       1  LIG1        0.0000
@<TRIPOS>BOND
     1     1     2    2
     2     2     3    1
     3     3     4    1
     4     4     5    1
     5     5     6    2
     6     6     2    1
     7     6     7    1
     8     7     8    1
     9     8     9    1
    10     9    10    1
    11    10    11    1
    12    11    12    1
    13    10    13    1
    14    13    14    1
    15    14     7    1
    16     8    15    1
    17     8    16    1
    18     9    17    1
    19     9    18    1
    20    10    19    1
    21    11    20    1
    22    11    21    1
    23    12    22    1
    24    13    23    1
    25    13    24    1
    26    14    25    1
    27    14    26    1
