@<TRIPOS>MOLECULE
*****
 26 27 0 0 0
SMALL
USER_CHARGES

@<TRIPOS>ATOM
      1 O1          4.7718    5.7626    3.9237 O.2     1  LIG1        0.0000
      2 C2          5.6497    5.2073    3.2848 C.2     1  LIG1        0.0000
      3 N3          6.9196    5.6978    3.2400 N.am    1  LIG1       -1.0000
      4 S4          7.7488    4.6403    2.2752 S.3     1  LIG1        0.0000
      5 N5          6.5499    3.5641    1.9042 N.2     1  LIG1        0.0000
      6 C6          5.4908    4.0215    2.5237 C.2     1  LIG1        0.0000
      7 N7          4.2742    3.3552    2.4277 N.pl3   1  LIG1        0.0000
      8 C8          3.1258    4.0807    1.8618 C.3     1  LIG1        0.0000
      9 C9          2.1842    3.1532    1.1058 C.3     1  LIG1        0.0000
     10 C10         1.8779    1.8779    1.8779 C.3     1  LIG1        0.0000
     11 C11         1.0000    1.0000    1.0000 C.3     1  LIG1        0.0000
     12 O12         0.6930   -0.2027    1.6898 O.3     1  LIG1        0.0000
     13 C13         3.1963    1.1446    2.0849 C.3     1  LIG1        0.0000
     14 C14         4.1980    1.9595    2.8906 C.3     1  LIG1        0.0000
     15 H           3.4640    4.7807    1.2327 H       1  LIG1        0.0000
     16 H           2.6207    4.5175    2.6061 H       1  LIG1        0.0000
     17 H           1.3265    3.6377    0.9338 H       1  LIG1        0.0000
     18 H           2.6082    2.9065    0.2344 H       1  LIG1        0.0000
     19 H           1.4332    2.0794    2.7506 H       1  LIG1        0.0000
     20 H           0.1531    1.4858    0.7838 H       1  LIG1        0.0000
     21 H           1.4858    0.7838    0.1531 H       1  LIG1        0.0000
     22 H           0.1157   -0.7800    1.1124 H       1  LIG1        0.0000
     23 H           3.5941    0.9418    1.1901 H       1  LIG1        0.0000
     24 H           3.0146    0.2895    2.5704 H       1  LIG1        0.0000
     25 H           3.9209    1.9529    3.8514 H       1  LIG1        0.0000
     26 H           5.1014    1.5401    2.8013 H       1  LIG1        0.0000
@<TRIPOS>BOND
     1     1     2    2
     2     2     3    1
     3     3     4    1
     4     4     5    1
     5     5     6    2
     6     6     2    1
     7     6     7    1
     8     7     8    1
     9     8     9    1
    10     9    10    1
    11    10    11    1
    12    11    12    1
    13    10    13    1
    14    13    14    1
    15    14     7    1
    16     8    15    1
    17     8    16    1
    18     9    17    1
    19     9    18    1
    20    10    19    1
    21    11    20    1
    22    11    21    1
    23    12    22    1
    24    13    23    1
    25    13    24    1
    26    14    25    1
    27    14    26    1
