@<TRIPOS>MOLECULE
*****
 26 27 0 0 0
SMALL
USER_CHARGES

@<TRIPOS>ATOM
      1 O1          3.2556    2.0852    5.8899 O.2     1  LIG1        0.0000
      2 C2          3.3641    3.2951    5.7820 C.2     1  LIG1        0.0000
      3 N3          3.4078    4.1084    6.8736 N.am    1  LIG1       -1.0000
      4 S4          3.5576    5.6366    6.2580 S.3     1  LIG1        0.0000
      5 N5          3.5726    5.3107    4.6373 N.2     1  LIG1        0.0000
      6 C6          3.4552    4.0087    4.5601 C.2     1  LIG1        0.0000
      7 N7          3.4265    3.3748    3.3230 N.pl3   1  LIG1        0.0000
      8 C8          2.8643    4.1212    2.1878 C.3     1  LIG1        0.0000
      9 C9          2.2309    3.1790    1.1757 C.3     1  LIG1        0.0000
     10 C10         1.8777    1.8777    1.8777 C.3     1  LIG1        0.0000
     11 C11         1.0000    1.0000    1.0000 C.3     1  LIG1        0.0000
     12 O12         0.6930   -0.2027    1.6898 O.3     1  LIG1        0.0000
     13 C13         3.1808    1.1826    2.2343 C.3     1  LIG1        0.0000
     14 C14         3.9524    2.0029    3.2554 C.3     1  LIG1        0.0000
     15 H           3.5955    4.6370    1.7414 H       1  LIG1        0.0000
     16 H           2.1679    4.7544    2.5255 H       1  LIG1        0.0000
     17 H           1.4023    3.5951    0.8009 H       1  LIG1        0.0000
     18 H           2.8771    2.9972    0.4345 H       1  LIG1        0.0000
     19 H           1.3830    2.0892    2.7207 H       1  LIG1        0.0000
     20 H           0.1531    1.4858    0.7838 H       1  LIG1        0.0000
     21 H           1.4858    0.7838    0.1531 H       1  LIG1        0.0000
     22 H           0.1157   -0.7800    1.1124 H       1  LIG1        0.0000
     23 H           3.7352    1.0768    1.4088 H       1  LIG1        0.0000
     24 H           2.9799    0.2815    2.6186 H       1  LIG1        0.0000
     25 H           3.8663    1.5735    4.1544 H       1  LIG1        0.0000
     26 H           4.9164    2.0333    2.9914 H       1  LIG1        0.0000
@<TRIPOS>BOND
     1     1     2    2
     2     2     3    1
     3     3     4    1
     4     4     5    1
     5     5     6    2
     6     6     2    1
     7     6     7    1
     8     7     8    1
     9     8     9    1
    10     9    10    1
    11    10    11    1
    12    11    12    1
    13    10    13    1
    14    13    14    1
    15    14     7    1
    16     8    15    1
    17     8    16    1
    18     9    17    1
    19     9    18    1
    20    10    19    1
    21    11    20    1
    22    11    21    1
    23    12    22    1
    24    13    23    1
    25    13    24    1
    26    14    25    1
    27    14    26    1
