@<TRIPOS>MOLECULE
*****
 26 27 0 0 0
SMALL
USER_CHARGES

@<TRIPOS>ATOM
      1 O1          6.2318    3.7770   -0.2544 O.2     1  LIG1        0.0000
      2 C2          6.8151    3.0251    0.5083 C.2     1  LIG1        0.0000
      3 N3          8.1744    2.9430    0.5298 N.am    1  LIG1       -1.0000
      4 S4          8.5129    1.8194    1.6959 S.3     1  LIG1        0.0000
      5 N5          6.9851    1.4238    2.1886 N.2     1  LIG1        0.0000
      6 C6          6.1966    2.1590    1.4453 C.2     1  LIG1        0.0000
      7 N7          4.8158    2.0797    1.5882 N.pl3   1  LIG1        0.0000
      8 C8          3.8992    2.3252    0.4662 C.3     1  LIG1        0.0000
      9 C9          2.6278    2.9144    1.0564 C.3     1  LIG1        0.0000
     10 C10         1.8780    1.8780    1.8780 C.3     1  LIG1        0.0000
     11 C11         1.0000    1.0000    1.0000 C.3     1  LIG1        0.0000
     12 O12         0.6930   -0.2027    1.6898 O.3     1  LIG1        0.0000
     13 C13         2.9047    0.9837    2.5518 C.3     1  LIG1        0.0000
     14 C14         4.1842    1.7423    2.8725 C.3     1  LIG1        0.0000
     15 H           3.6943    1.4671   -0.0048 H       1  LIG1        0.0000
     16 H           4.3098    2.9696   -0.1789 H       1  LIG1        0.0000
     17 H           2.8676    3.6869    1.6444 H       1  LIG1        0.0000
     18 H           2.0386    3.2314    0.3132 H       1  LIG1        0.0000
     19 H           1.3183    2.3337    2.5701 H       1  LIG1        0.0000
     20 H           0.1531    1.4858    0.7838 H       1  LIG1        0.0000
     21 H           1.4858    0.7838    0.1531 H       1  LIG1        0.0000
     22 H           0.1157   -0.7800    1.1124 H       1  LIG1        0.0000
     23 H           3.1231    0.2228    1.9408 H       1  LIG1        0.0000
     24 H           2.5168    0.6278    3.4020 H       1  LIG1        0.0000
     25 H           3.9707    2.5769    3.3802 H       1  LIG1        0.0000
     26 H           4.7966    1.1686    3.4164 H       1  LIG1        0.0000
@<TRIPOS>BOND
     1     1     2    2
     2     2     3    1
     3     3     4    1
     4     4     5    1
     5     5     6    2
     6     6     2    1
     7     6     7    1
     8     7     8    1
     9     8     9    1
    10     9    10    1
    11    10    11    1
    12    11    12    1
    13    10    13    1
    14    13    14    1
    15    14     7    1
    16     8    15    1
    17     8    16    1
    18     9    17    1
    19     9    18    1
    20    10    19    1
    21    11    20    1
    22    11    21    1
    23    12    22    1
    24    13    23    1
    25    13    24    1
    26    14    25    1
    27    14    26    1
