@<TRIPOS>MOLECULE
*****
 26 27 0 0 0
SMALL
USER_CHARGES

@<TRIPOS>ATOM
      1 O1          4.9208    5.7748    3.8766 O.2     1  LIG1        0.0000
      2 C2          5.3017    4.6601    4.1922 C.2     1  LIG1        0.0000
      3 N3          6.5018    4.4623    4.8050 N.am    1  LIG1       -1.0000
      4 S4          6.5940    2.8273    5.0392 S.3     1  LIG1        0.0000
      5 N5          5.1522    2.3459    4.3890 N.2     1  LIG1        0.0000
      6 C6          4.5879    3.4538    3.9778 C.2     1  LIG1        0.0000
      7 N7          3.3411    3.4249    3.3633 N.pl3   1  LIG1        0.0000
      8 C8          3.2607    3.9452    1.9913 C.3     1  LIG1        0.0000
      9 C9          2.2305    3.1792    1.1746 C.3     1  LIG1        0.0000
     10 C10         1.8776    1.8776    1.8776 C.3     1  LIG1        0.0000
     11 C11         1.0000    1.0000    1.0000 C.3     1  LIG1        0.0000
     12 O12         0.6930   -0.2027    1.6898 O.3     1  LIG1        0.0000
     13 C13         1.1846    2.2403    3.1814 C.3     1  LIG1        0.0000
     14 C14         2.2067    2.8664    4.1158 C.3     1  LIG1        0.0000
     15 H           4.1560    3.8552    1.5548 H       1  LIG1        0.0000
     16 H           3.0007    4.9103    2.0226 H       1  LIG1        0.0000
     17 H           1.4060    3.7362    1.0744 H       1  LIG1        0.0000
     18 H           2.6076    2.9765    0.2710 H       1  LIG1        0.0000
     19 H           2.7218    1.3840    2.0867 H       1  LIG1        0.0000
     20 H           0.1531    1.4858    0.7838 H       1  LIG1        0.0000
     21 H           1.4858    0.7838    0.1531 H       1  LIG1        0.0000
     22 H           0.1157   -0.7800    1.1124 H       1  LIG1        0.0000
     23 H           0.8045    1.4162    3.6015 H       1  LIG1        0.0000
     24 H           0.4484    2.8927    3.0015 H       1  LIG1        0.0000
     25 H           1.7677    3.5990    4.6361 H       1  LIG1        0.0000
     26 H           2.5451    2.1671    4.7453 H       1  LIG1        0.0000
@<TRIPOS>BOND
     1     1     2    2
     2     2     3    1
     3     3     4    1
     4     4     5    1
     5     5     6    2
     6     6     2    1
     7     6     7    1
     8     7     8    1
     9     8     9    1
    10     9    10    1
    11    10    11    1
    12    11    12    1
    13    10    13    1
    14    13    14    1
    15    14     7    1
    16     8    15    1
    17     8    16    1
    18     9    17    1
    19     9    18    1
    20    10    19    1
    21    11    20    1
    22    11    21    1
    23    12    22    1
    24    13    23    1
    25    13    24    1
    26    14    25    1
    27    14    26    1
