@<TRIPOS>MOLECULE

  26   27
SMALL
USER_CHARGES
@<TRIPOS>ATOM
   1 F1           6.5459     0.0091     3.1422 F            1    LIG   0.0000
   2 C2           5.2508    -0.2847     3.2141 C.3          1    LIG   0.0000
   3 F3           4.7596     0.1558     4.3689 F            1    LIG   0.0000
   4 F4           5.0903    -1.6028     3.1380 F            1    LIG   0.0000
   5 C5           4.5151     0.3827     2.0629 C.ar         1    LIG   0.0000
   6 C6           5.2331     0.9800     1.0320 C.ar         1    LIG   0.0000
   7 C7           4.5603     1.5909    -0.0208 C.ar         1    LIG   0.0000
   8 C8           3.1692     1.5980    -0.0311 C.ar         1    LIG   0.0000
   9 Cl9          2.3289     2.3862    -1.3881 Cl           1    LIG   0.0000
  10 C10          2.4510     1.0000     1.0000 C.ar         1    LIG   0.0000
  11 C11          1.0000     1.0000     1.0000 C.2          1    LIG   0.0000
  12 N12          0.3750    -0.0825     0.9979 N.2          1    LIG   0.0000
  13 N13          1.1803    -1.1909     0.9958 N.pl3        1    LIG   0.0000
  14 C14          0.6110    -2.4695     0.9933 C.2          1    LIG   0.0000
  15 N15          1.2716    -3.6029     0.9911 N.2          1    LIG   0.0000
  16 N16          0.3921    -4.5801     0.9888 N.2          1    LIG   0.0000
  17 C17         -0.8303    -4.1038     0.9912 C.2          1    LIG   0.0000
  18 N18         -0.7225    -2.7459     0.9962 N.pl3        1    LIG   0.0000
  19 C19          3.1239     0.3890     2.0532 C.ar         1    LIG   0.0000
  20 H           -1.4724    -2.0844     1.0011 H            1    LIG   0.0000
  21 H            6.2330     0.9702     1.0480 H            1    LIG   0.0000
  22 H            5.0723     2.0215    -0.7642 H            1    LIG   0.0000
  23 H            0.5000     1.8660     1.0017 H            1    LIG   0.0000
  24 H            2.1748    -1.0864     0.9960 H            1    LIG   0.0000
  25 H           -1.6776    -4.6350     0.9897 H            1    LIG   0.0000
  26 H            2.6123    -0.0417     2.7967 H            1    LIG   0.0000
@<TRIPOS>BOND
   1        1        2 1
   2        2        3 1
   3        2        4 1
   4        2        5 1
   5        5        6 ar
   6        6        7 ar
   7        7        8 ar
   8        8        9 1
   9        8       10 ar
  10       10       11 1
  11       11       12 2
  12       12       13 1
  13       13       14 1
  14       14       15 2
  15       15       16 1
  16       16       17 2
  17       17       18 1
  18       18       14 1
  19       10       19 ar
  20       19        5 ar
  21       18       20 1
  22        6       21 1
  23        7       22 1
  24       11       23 1
  25       13       24 1
  26       17       25 1
  27       19       26 1

@<TRIPOS>MOLECULE

  26   27
SMALL
USER_CHARGES
@<TRIPOS>ATOM
   1 F1           6.5459     0.0091     3.1422 F            1    LIG   0.0000
   2 C2           5.2508    -0.2847     3.2141 C.3          1    LIG   0.0000
   3 F3           4.7596     0.1558     4.3689 F            1    LIG   0.0000
   4 F4           5.0903    -1.6028     3.1380 F            1    LIG   0.0000
   5 C5           4.5151     0.3827     2.0629 C.ar         1    LIG   0.0000
   6 C6           5.2331     0.9800     1.0320 C.ar         1    LIG   0.0000
   7 C7           4.5603     1.5909    -0.0208 C.ar         1    LIG   0.0000
   8 C8           3.1692     1.5980    -0.0311 C.ar         1    LIG   0.0000
   9 Cl9          2.3289     2.3862    -1.3881 Cl           1    LIG   0.0000
  10 C10          2.4510     1.0000     1.0000 C.ar         1    LIG   0.0000
  11 C11          1.0000     1.0000     1.0000 C.2          1    LIG   0.0000
  12 N12          0.3750    -0.0825     0.9979 N.2          1    LIG   0.0000
  13 N13          1.1803    -1.1909     0.9958 N.pl3        1    LIG   0.0000
  14 C14          0.6110    -2.4695     0.9933 C.2          1    LIG   0.0000
  15 N15          0.2991    -3.1719     2.0564 N.2          1    LIG   0.0000
  16 N16         -0.2091    -4.3137     1.6482 N.2          1    LIG   0.0000
  17 C17         -0.2357    -4.3673     0.3377 C.2          1    LIG   0.0000
  18 N18          0.2845    -3.1921    -0.1139 N.pl3        1    LIG   0.0000
  19 C19          3.1239     0.3890     2.0532 C.ar         1    LIG   0.0000
  20 H            0.4030    -2.9154    -1.0675 H            1    LIG   0.0000
  21 H            6.2330     0.9702     1.0480 H            1    LIG   0.0000
  22 H            5.0723     2.0215    -0.7642 H            1    LIG   0.0000
  23 H            0.5000     1.8660     1.0017 H            1    LIG   0.0000
  24 H            2.1748    -1.0864     0.9960 H            1    LIG   0.0000
  25 H           -0.5728    -5.1246    -0.2217 H            1    LIG   0.0000
  26 H            2.6123    -0.0417     2.7967 H            1    LIG   0.0000
@<TRIPOS>BOND
   1        1        2 1
   2        2        3 1
   3        2        4 1
   4        2        5 1
   5        5        6 ar
   6        6        7 ar
   7        7        8 ar
   8        8        9 1
   9        8       10 ar
  10       10       11 1
  11       11       12 2
  12       12       13 1
  13       13       14 1
  14       14       15 2
  15       15       16 1
  16       16       17 2
  17       17       18 1
  18       18       14 1
  19       10       19 ar
  20       19        5 ar
  21       18       20 1
  22        6       21 1
  23        7       22 1
  24       11       23 1
  25       13       24 1
  26       17       25 1
  27       19       26 1

@<TRIPOS>MOLECULE

  26   27
SMALL
USER_CHARGES
@<TRIPOS>ATOM
   1 F1           6.5459     0.0091     3.1422 F            1    LIG   0.0000
   2 C2           5.2508    -0.2847     3.2141 C.3          1    LIG   0.0000
   3 F3           4.7596     0.1558     4.3689 F            1    LIG   0.0000
   4 F4           5.0903    -1.6028     3.1380 F            1    LIG   0.0000
   5 C5           4.5151     0.3827     2.0629 C.ar         1    LIG   0.0000
   6 C6           5.2331     0.9800     1.0320 C.ar         1    LIG   0.0000
   7 C7           4.5603     1.5909    -0.0208 C.ar         1    LIG   0.0000
   8 C8           3.1692     1.5980    -0.0311 C.ar         1    LIG   0.0000
   9 Cl9          2.3289     2.3862    -1.3881 Cl           1    LIG   0.0000
  10 C10          2.4510     1.0000     1.0000 C.ar         1    LIG   0.0000
  11 C11          1.0000     1.0000     1.0000 C.2          1    LIG   0.0000
  12 N12          0.3750    -0.0825     0.9979 N.2          1    LIG   0.0000
  13 N13          1.1803    -1.1909     0.9958 N.pl3        1    LIG   0.0000
  14 C14          0.6110    -2.4695     0.9933 C.2          1    LIG   0.0000
  15 N15          0.2991    -3.1678    -0.0725 N.2          1    LIG   0.0000
  16 N16         -0.2099    -4.3109     0.3313 N.2          1    LIG   0.0000
  17 C17         -0.2337    -4.3707     1.6416 C.2          1    LIG   0.0000
  18 N18          0.2908    -3.1992     2.0977 N.pl3        1    LIG   0.0000
  19 C19          3.1239     0.3890     2.0532 C.ar         1    LIG   0.0000
  20 H            0.4158    -2.9290     3.0524 H            1    LIG   0.0000
  21 H            6.2330     0.9702     1.0480 H            1    LIG   0.0000
  22 H            5.0723     2.0215    -0.7642 H            1    LIG   0.0000
  23 H            0.5000     1.8660     1.0017 H            1    LIG   0.0000
  24 H            2.1748    -1.0864     0.9960 H            1    LIG   0.0000
  25 H           -0.5717    -5.1297     2.1981 H            1    LIG   0.0000
  26 H            2.6123    -0.0417     2.7967 H            1    LIG   0.0000
@<TRIPOS>BOND
   1        1        2 1
   2        2        3 1
   3        2        4 1
   4        2        5 1
   5        5        6 ar
   6        6        7 ar
   7        7        8 ar
   8        8        9 1
   9        8       10 ar
  10       10       11 1
  11       11       12 2
  12       12       13 1
  13       13       14 1
  14       14       15 2
  15       15       16 1
  16       16       17 2
  17       17       18 1
  18       18       14 1
  19       10       19 ar
  20       19        5 ar
  21       18       20 1
  22        6       21 1
  23        7       22 1
  24       11       23 1
  25       13       24 1
  26       17       25 1
  27       19       26 1

@<TRIPOS>MOLECULE

  26   27
SMALL
USER_CHARGES
@<TRIPOS>ATOM
   1 F1           6.5459     0.0091     3.1422 F            1    LIG   0.0000
   2 C2           5.2508    -0.2847     3.2141 C.3          1    LIG   0.0000
   3 F3           4.7596     0.1558     4.3689 F            1    LIG   0.0000
   4 F4           5.0903    -1.6028     3.1380 F            1    LIG   0.0000
   5 C5           4.5151     0.3827     2.0629 C.ar         1    LIG   0.0000
   6 C6           5.2331     0.9800     1.0320 C.ar         1    LIG   0.0000
   7 C7           4.5603     1.5909    -0.0208 C.ar         1    LIG   0.0000
   8 C8           3.1692     1.5980    -0.0311 C.ar         1    LIG   0.0000
   9 Cl9          2.3289     2.3862    -1.3881 Cl           1    LIG   0.0000
  10 C10          2.4510     1.0000     1.0000 C.ar         1    LIG   0.0000
  11 C11          1.0000     1.0000     1.0000 C.2          1    LIG   0.0000
  12 N12          0.3750    -0.0825     0.9979 N.2          1    LIG   0.0000
  13 N13          1.1803    -1.1909     0.9958 N.pl3        1    LIG   0.0000
  14 C14          0.6110    -2.4695     0.9933 C.2          1    LIG   0.0000
  15 N15         -0.6733    -2.7369     0.9928 N.2          1    LIG   0.0000
  16 N16         -0.8110    -4.0445     0.9907 N.2          1    LIG   0.0000
  17 C17          0.3609    -4.6342     0.9881 C.2          1    LIG   0.0000
  18 N18          1.2979    -3.6454     0.9876 N.pl3        1    LIG   0.0000
  19 C19          3.1239     0.3890     2.0532 C.ar         1    LIG   0.0000
  20 H            2.2913    -3.7600     0.9838 H            1    LIG   0.0000
  21 H            6.2330     0.9702     1.0480 H            1    LIG   0.0000
  22 H            5.0723     2.0215    -0.7642 H            1    LIG   0.0000
  23 H            0.5000     1.8660     1.0017 H            1    LIG   0.0000
  24 H            2.1748    -1.0864     0.9960 H            1    LIG   0.0000
  25 H            0.5330    -5.6193     0.9867 H            1    LIG   0.0000
  26 H            2.6123    -0.0417     2.7967 H            1    LIG   0.0000
@<TRIPOS>BOND
   1        1        2 1
   2        2        3 1
   3        2        4 1
   4        2        5 1
   5        5        6 ar
   6        6        7 ar
   7        7        8 ar
   8        8        9 1
   9        8       10 ar
  10       10       11 1
  11       11       12 2
  12       12       13 1
  13       13       14 1
  14       14       15 2
  15       15       16 1
  16       16       17 2
  17       17       18 1
  18       18       14 1
  19       10       19 ar
  20       19        5 ar
  21       18       20 1
  22        6       21 1
  23        7       22 1
  24       11       23 1
  25       13       24 1
  26       17       25 1
  27       19       26 1

@<TRIPOS>MOLECULE

  26   27
SMALL
USER_CHARGES
@<TRIPOS>ATOM
   1 F1           6.5459     0.0091     3.1422 F            1    LIG   0.0000
   2 C2           5.2508    -0.2847     3.2141 C.3          1    LIG   0.0000
   3 F3           4.7596     0.1558     4.3689 F            1    LIG   0.0000
   4 F4           5.0903    -1.6028     3.1380 F            1    LIG   0.0000
   5 C5           4.5151     0.3827     2.0629 C.ar         1    LIG   0.0000
   6 C6           5.2331     0.9800     1.0320 C.ar         1    LIG   0.0000
   7 C7           4.5603     1.5909    -0.0208 C.ar         1    LIG   0.0000
   8 C8           3.1692     1.5980    -0.0311 C.ar         1    LIG   0.0000
   9 Cl9          2.3289     2.3862    -1.3881 Cl           1    LIG   0.0000
  10 C10          2.4510     1.0000     1.0000 C.ar         1    LIG   0.0000
  11 C11          1.0000     1.0000     1.0000 C.2          1    LIG   0.0000
  12 N12          0.3750    -0.0825     0.9979 N.2          1    LIG   0.0000
  13 N13          1.1803    -1.1909     0.9958 N.pl3        1    LIG   0.0000
  14 C14          0.7424    -2.3752     1.5996 C.2          1    LIG   0.0000
  15 N15          1.2148    -3.5761     1.3639 N.2          1    LIG   0.0000
  16 N16          0.5516    -4.4237     2.1191 N.2          1    LIG   0.0000
  17 C17         -0.3437    -3.7964     2.8442 C.2          1    LIG   0.0000
  18 N18         -0.2439    -2.4738     2.5334 N.pl3        1    LIG   0.0000
  19 C19          3.1239     0.3890     2.0532 C.ar         1    LIG   0.0000
  20 H           -0.7864    -1.7252     2.9146 H            1    LIG   0.0000
  21 H            6.2330     0.9702     1.0480 H            1    LIG   0.0000
  22 H            5.0723     2.0215    -0.7642 H            1    LIG   0.0000
  23 H            0.5000     1.8660     1.0017 H            1    LIG   0.0000
  24 H            2.0809    -1.1537     0.5628 H            1    LIG   0.0000
  25 H           -0.9771    -4.2092     3.4988 H            1    LIG   0.0000
  26 H            2.6123    -0.0417     2.7967 H            1    LIG   0.0000
@<TRIPOS>BOND
   1        1        2 1
   2        2        3 1
   3        2        4 1
   4        2        5 1
   5        5        6 ar
   6        6        7 ar
   7        7        8 ar
   8        8        9 1
   9        8       10 ar
  10       10       11 1
  11       11       12 2
  12       12       13 1
  13       13       14 1
  14       14       15 2
  15       15       16 1
  16       16       17 2
  17       17       18 1
  18       18       14 1
  19       10       19 ar
  20       19        5 ar
  21       18       20 1
  22        6       21 1
  23        7       22 1
  24       11       23 1
  25       13       24 1
  26       17       25 1
  27       19       26 1

@<TRIPOS>MOLECULE

  26   27
SMALL
USER_CHARGES
@<TRIPOS>ATOM
   1 F1           6.5459     0.0091     3.1422 F            1    LIG   0.0000
   2 C2           5.2508    -0.2847     3.2141 C.3          1    LIG   0.0000
   3 F3           4.7596     0.1558     4.3689 F            1    LIG   0.0000
   4 F4           5.0903    -1.6028     3.1380 F            1    LIG   0.0000
   5 C5           4.5151     0.3827     2.0629 C.ar         1    LIG   0.0000
   6 C6           5.2331     0.9800     1.0320 C.ar         1    LIG   0.0000
   7 C7           4.5603     1.5909    -0.0208 C.ar         1    LIG   0.0000
   8 C8           3.1692     1.5980    -0.0311 C.ar         1    LIG   0.0000
   9 Cl9          2.3289     2.3862    -1.3881 Cl           1    LIG   0.0000
  10 C10          2.4510     1.0000     1.0000 C.ar         1    LIG   0.0000
  11 C11          1.0000     1.0000     1.0000 C.2          1    LIG   0.0000
  12 N12          0.3750    -0.0825     0.9979 N.2          1    LIG   0.0000
  13 N13          1.1803    -1.1909     0.9958 N.pl3        1    LIG   0.0000
  14 C14          0.7424    -2.3752     1.5996 C.2          1    LIG   0.0000
  15 N15         -0.2098    -2.4718     2.4967 N.2          1    LIG   0.0000
  16 N16         -0.3291    -3.7405     2.8204 N.2          1    LIG   0.0000
  17 C17          0.5274    -4.4730     2.1488 C.2          1    LIG   0.0000
  18 N18          1.2313    -3.6218     1.3515 N.pl3        1    LIG   0.0000
  19 C19          3.1239     0.3890     2.0532 C.ar         1    LIG   0.0000
  20 H            1.9610    -3.8639     0.7121 H            1    LIG   0.0000
  21 H            6.2330     0.9702     1.0480 H            1    LIG   0.0000
  22 H            5.0723     2.0215    -0.7642 H            1    LIG   0.0000
  23 H            0.5000     1.8660     1.0017 H            1    LIG   0.0000
  24 H            2.0809    -1.1537     0.5628 H            1    LIG   0.0000
  25 H            0.6414    -5.4645     2.2103 H            1    LIG   0.0000
  26 H            2.6123    -0.0417     2.7967 H            1    LIG   0.0000
@<TRIPOS>BOND
   1        1        2 1
   2        2        3 1
   3        2        4 1
   4        2        5 1
   5        5        6 ar
   6        6        7 ar
   7        7        8 ar
   8        8        9 1
   9        8       10 ar
  10       10       11 1
  11       11       12 2
  12       12       13 1
  13       13       14 1
  14       14       15 2
  15       15       16 1
  16       16       17 2
  17       17       18 1
  18       18       14 1
  19       10       19 ar
  20       19        5 ar
  21       18       20 1
  22        6       21 1
  23        7       22 1
  24       11       23 1
  25       13       24 1
  26       17       25 1
  27       19       26 1

@<TRIPOS>MOLECULE

  26   27
SMALL
USER_CHARGES
@<TRIPOS>ATOM
   1 F1           4.3850    -0.9572    -1.9640 F            1    LIG   0.0000
   2 C2           5.2508    -0.2751    -1.2196 C.3          1    LIG   0.0000
   3 F3           5.8385     0.6566    -1.9649 F            1    LIG   0.0000
   4 F4           6.1724    -1.1049    -0.7390 F            1    LIG   0.0000
   5 C5           4.5151     0.3882    -0.0661 C.ar         1    LIG   0.0000
   6 C6           5.2331     0.9823     0.9667 C.ar         1    LIG   0.0000
   7 C7           4.5603     1.5886     2.0222 C.ar         1    LIG   0.0000
   8 C8           3.1692     1.5940     2.0334 C.ar         1    LIG   0.0000
   9 Cl9          2.3289     2.3751     3.3945 Cl           1    LIG   0.0000
  10 C10          2.4510     1.0000     1.0000 C.ar         1    LIG   0.0000
  11 C11          1.0000     1.0000     1.0000 C.2          1    LIG   0.0000
  12 N12          0.3750    -0.0825     0.9979 N.2          1    LIG   0.0000
  13 N13          1.1803    -1.1909     0.9958 N.pl3        1    LIG   0.0000
  14 C14          0.6110    -2.4695     0.9933 C.2          1    LIG   0.0000
  15 N15          1.2716    -3.6029     0.9911 N.2          1    LIG   0.0000
  16 N16          0.3921    -4.5801     0.9888 N.2          1    LIG   0.0000
  17 C17         -0.8303    -4.1038     0.9912 C.2          1    LIG   0.0000
  18 N18         -0.7225    -2.7459     0.9962 N.pl3        1    LIG   0.0000
  19 C19          3.1239     0.3934    -0.0557 C.ar         1    LIG   0.0000
  20 H           -1.4724    -2.0844     1.0011 H            1    LIG   0.0000
  21 H            6.2330     0.9733     0.9502 H            1    LIG   0.0000
  22 H            5.0723     2.0171     2.7667 H            1    LIG   0.0000
  23 H            0.5000     1.8660     1.0017 H            1    LIG   0.0000
  24 H            2.1748    -1.0864     0.9960 H            1    LIG   0.0000
  25 H           -1.6776    -4.6350     0.9897 H            1    LIG   0.0000
  26 H            2.6123    -0.0351    -0.8004 H            1    LIG   0.0000
@<TRIPOS>BOND
   1        1        2 1
   2        2        3 1
   3        2        4 1
   4        2        5 1
   5        5        6 ar
   6        6        7 ar
   7        7        8 ar
   8        8        9 1
   9        8       10 ar
  10       10       11 1
  11       11       12 2
  12       12       13 1
  13       13       14 1
  14       14       15 2
  15       15       16 1
  16       16       17 2
  17       17       18 1
  18       18       14 1
  19       10       19 ar
  20       19        5 ar
  21       18       20 1
  22        6       21 1
  23        7       22 1
  24       11       23 1
  25       13       24 1
  26       17       25 1
  27       19       26 1

@<TRIPOS>MOLECULE

  26   27
SMALL
USER_CHARGES
@<TRIPOS>ATOM
   1 F1           4.3850    -0.9572    -1.9640 F            1    LIG   0.0000
   2 C2           5.2508    -0.2751    -1.2196 C.3          1    LIG   0.0000
   3 F3           5.8385     0.6566    -1.9649 F            1    LIG   0.0000
   4 F4           6.1724    -1.1049    -0.7390 F            1    LIG   0.0000
   5 C5           4.5151     0.3882    -0.0661 C.ar         1    LIG   0.0000
   6 C6           5.2331     0.9823     0.9667 C.ar         1    LIG   0.0000
   7 C7           4.5603     1.5886     2.0222 C.ar         1    LIG   0.0000
   8 C8           3.1692     1.5940     2.0334 C.ar         1    LIG   0.0000
   9 Cl9          2.3289     2.3751     3.3945 Cl           1    LIG   0.0000
  10 C10          2.4510     1.0000     1.0000 C.ar         1    LIG   0.0000
  11 C11          1.0000     1.0000     1.0000 C.2          1    LIG   0.0000
  12 N12          0.3750    -0.0825     0.9979 N.2          1    LIG   0.0000
  13 N13          1.1803    -1.1909     0.9958 N.pl3        1    LIG   0.0000
  14 C14          0.6110    -2.4695     0.9933 C.2          1    LIG   0.0000
  15 N15          0.2991    -3.1719     2.0564 N.2          1    LIG   0.0000
  16 N16         -0.2091    -4.3137     1.6482 N.2          1    LIG   0.0000
  17 C17         -0.2357    -4.3673     0.3377 C.2          1    LIG   0.0000
  18 N18          0.2845    -3.1921    -0.1139 N.pl3        1    LIG   0.0000
  19 C19          3.1239     0.3934    -0.0557 C.ar         1    LIG   0.0000
  20 H            0.4030    -2.9154    -1.0675 H            1    LIG   0.0000
  21 H            6.2330     0.9733     0.9502 H            1    LIG   0.0000
  22 H            5.0723     2.0171     2.7667 H            1    LIG   0.0000
  23 H            0.5000     1.8660     1.0017 H            1    LIG   0.0000
  24 H            2.1748    -1.0864     0.9960 H            1    LIG   0.0000
  25 H           -0.5728    -5.1246    -0.2217 H            1    LIG   0.0000
  26 H            2.6123    -0.0351    -0.8004 H            1    LIG   0.0000
@<TRIPOS>BOND
   1        1        2 1
   2        2        3 1
   3        2        4 1
   4        2        5 1
   5        5        6 ar
   6        6        7 ar
   7        7        8 ar
   8        8        9 1
   9        8       10 ar
  10       10       11 1
  11       11       12 2
  12       12       13 1
  13       13       14 1
  14       14       15 2
  15       15       16 1
  16       16       17 2
  17       17       18 1
  18       18       14 1
  19       10       19 ar
  20       19        5 ar
  21       18       20 1
  22        6       21 1
  23        7       22 1
  24       11       23 1
  25       13       24 1
  26       17       25 1
  27       19       26 1

@<TRIPOS>MOLECULE

  26   27
SMALL
USER_CHARGES
@<TRIPOS>ATOM
   1 F1           4.3850    -0.9572    -1.9640 F            1    LIG   0.0000
   2 C2           5.2508    -0.2751    -1.2196 C.3          1    LIG   0.0000
   3 F3           5.8385     0.6566    -1.9649 F            1    LIG   0.0000
   4 F4           6.1724    -1.1049    -0.7390 F            1    LIG   0.0000
   5 C5           4.5151     0.3882    -0.0661 C.ar         1    LIG   0.0000
   6 C6           5.2331     0.9823     0.9667 C.ar         1    LIG   0.0000
   7 C7           4.5603     1.5886     2.0222 C.ar         1    LIG   0.0000
   8 C8           3.1692     1.5940     2.0334 C.ar         1    LIG   0.0000
   9 Cl9          2.3289     2.3751     3.3945 Cl           1    LIG   0.0000
  10 C10          2.4510     1.0000     1.0000 C.ar         1    LIG   0.0000
  11 C11          1.0000     1.0000     1.0000 C.2          1    LIG   0.0000
  12 N12          0.3750    -0.0825     0.9979 N.2          1    LIG   0.0000
  13 N13          1.1803    -1.1909     0.9958 N.pl3        1    LIG   0.0000
  14 C14          0.6110    -2.4695     0.9933 C.2          1    LIG   0.0000
  15 N15          0.2991    -3.1678    -0.0725 N.2          1    LIG   0.0000
  16 N16         -0.2099    -4.3109     0.3313 N.2          1    LIG   0.0000
  17 C17         -0.2337    -4.3707     1.6416 C.2          1    LIG   0.0000
  18 N18          0.2908    -3.1992     2.0977 N.pl3        1    LIG   0.0000
  19 C19          3.1239     0.3934    -0.0557 C.ar         1    LIG   0.0000
  20 H            0.4158    -2.9290     3.0524 H            1    LIG   0.0000
  21 H            6.2330     0.9733     0.9502 H            1    LIG   0.0000
  22 H            5.0723     2.0171     2.7667 H            1    LIG   0.0000
  23 H            0.5000     1.8660     1.0017 H            1    LIG   0.0000
  24 H            2.1748    -1.0864     0.9960 H            1    LIG   0.0000
  25 H           -0.5717    -5.1297     2.1981 H            1    LIG   0.0000
  26 H            2.6123    -0.0351    -0.8004 H            1    LIG   0.0000
@<TRIPOS>BOND
   1        1        2 1
   2        2        3 1
   3        2        4 1
   4        2        5 1
   5        5        6 ar
   6        6        7 ar
   7        7        8 ar
   8        8        9 1
   9        8       10 ar
  10       10       11 1
  11       11       12 2
  12       12       13 1
  13       13       14 1
  14       14       15 2
  15       15       16 1
  16       16       17 2
  17       17       18 1
  18       18       14 1
  19       10       19 ar
  20       19        5 ar
  21       18       20 1
  22        6       21 1
  23        7       22 1
  24       11       23 1
  25       13       24 1
  26       17       25 1
  27       19       26 1

@<TRIPOS>MOLECULE

  26   27
SMALL
USER_CHARGES
@<TRIPOS>ATOM
   1 F1           4.3850    -0.9572    -1.9640 F            1    LIG   0.0000
   2 C2           5.2508    -0.2751    -1.2196 C.3          1    LIG   0.0000
   3 F3           5.8385     0.6566    -1.9649 F            1    LIG   0.0000
   4 F4           6.1724    -1.1049    -0.7390 F            1    LIG   0.0000
   5 C5           4.5151     0.3882    -0.0661 C.ar         1    LIG   0.0000
   6 C6           5.2331     0.9823     0.9667 C.ar         1    LIG   0.0000
   7 C7           4.5603     1.5886     2.0222 C.ar         1    LIG   0.0000
   8 C8           3.1692     1.5940     2.0334 C.ar         1    LIG   0.0000
   9 Cl9          2.3289     2.3751     3.3945 Cl           1    LIG   0.0000
  10 C10          2.4510     1.0000     1.0000 C.ar         1    LIG   0.0000
  11 C11          1.0000     1.0000     1.0000 C.2          1    LIG   0.0000
  12 N12          0.3750    -0.0825     0.9979 N.2          1    LIG   0.0000
  13 N13          1.1803    -1.1909     0.9958 N.pl3        1    LIG   0.0000
  14 C14          0.6110    -2.4695     0.9933 C.2          1    LIG   0.0000
  15 N15         -0.6733    -2.7369     0.9928 N.2          1    LIG   0.0000
  16 N16         -0.8110    -4.0445     0.9907 N.2          1    LIG   0.0000
  17 C17          0.3609    -4.6342     0.9881 C.2          1    LIG   0.0000
  18 N18          1.2979    -3.6454     0.9876 N.pl3        1    LIG   0.0000
  19 C19          3.1239     0.3934    -0.0557 C.ar         1    LIG   0.0000
  20 H            2.2913    -3.7600     0.9838 H            1    LIG   0.0000
  21 H            6.2330     0.9733     0.9502 H            1    LIG   0.0000
  22 H            5.0723     2.0171     2.7667 H            1    LIG   0.0000
  23 H            0.5000     1.8660     1.0017 H            1    LIG   0.0000
  24 H            2.1748    -1.0864     0.9960 H            1    LIG   0.0000
  25 H            0.5330    -5.6193     0.9867 H            1    LIG   0.0000
  26 H            2.6123    -0.0351    -0.8004 H            1    LIG   0.0000
@<TRIPOS>BOND
   1        1        2 1
   2        2        3 1
   3        2        4 1
   4        2        5 1
   5        5        6 ar
   6        6        7 ar
   7        7        8 ar
   8        8        9 1
   9        8       10 ar
  10       10       11 1
  11       11       12 2
  12       12       13 1
  13       13       14 1
  14       14       15 2
  15       15       16 1
  16       16       17 2
  17       17       18 1
  18       18       14 1
  19       10       19 ar
  20       19        5 ar
  21       18       20 1
  22        6       21 1
  23        7       22 1
  24       11       23 1
  25       13       24 1
  26       17       25 1
  27       19       26 1

@<TRIPOS>MOLECULE

  26   27
SMALL
USER_CHARGES
@<TRIPOS>ATOM
   1 F1           4.3850    -0.9572    -1.9640 F            1    LIG   0.0000
   2 C2           5.2508    -0.2751    -1.2196 C.3          1    LIG   0.0000
   3 F3           5.8385     0.6566    -1.9649 F            1    LIG   0.0000
   4 F4           6.1724    -1.1049    -0.7390 F            1    LIG   0.0000
   5 C5           4.5151     0.3882    -0.0661 C.ar         1    LIG   0.0000
   6 C6           5.2331     0.9823     0.9667 C.ar         1    LIG   0.0000
   7 C7           4.5603     1.5886     2.0222 C.ar         1    LIG   0.0000
   8 C8           3.1692     1.5940     2.0334 C.ar         1    LIG   0.0000
   9 Cl9          2.3289     2.3751     3.3945 Cl           1    LIG   0.0000
  10 C10          2.4510     1.0000     1.0000 C.ar         1    LIG   0.0000
  11 C11          1.0000     1.0000     1.0000 C.2          1    LIG   0.0000
  12 N12          0.3750    -0.0825     0.9979 N.2          1    LIG   0.0000
  13 N13          1.1803    -1.1909     0.9958 N.pl3        1    LIG   0.0000
  14 C14          0.6701    -2.4257     0.5788 C.2          1    LIG   0.0000
  15 N15         -0.3980    -2.6034    -0.1618 N.2          1    LIG   0.0000
  16 N16         -0.5532    -3.8970    -0.3386 N.2          1    LIG   0.0000
  17 C17          0.3959    -4.5657     0.2722 C.2          1    LIG   0.0000
  18 N18          1.2016    -3.6450     0.8713 N.pl3        1    LIG   0.0000
  19 C19          3.1239     0.3934    -0.0557 C.ar         1    LIG   0.0000
  20 H            2.0196    -3.8278     1.4166 H            1    LIG   0.0000
  21 H            6.2330     0.9733     0.9502 H            1    LIG   0.0000
  22 H            5.0723     2.0171     2.7667 H            1    LIG   0.0000
  23 H            0.5000     1.8660     1.0017 H            1    LIG   0.0000
  24 H            2.1325    -1.1176     1.2921 H            1    LIG   0.0000
  25 H            0.5065    -5.5593     0.2939 H            1    LIG   0.0000
  26 H            2.6123    -0.0351    -0.8004 H            1    LIG   0.0000
@<TRIPOS>BOND
   1        1        2 1
   2        2        3 1
   3        2        4 1
   4        2        5 1
   5        5        6 ar
   6        6        7 ar
   7        7        8 ar
   8        8        9 1
   9        8       10 ar
  10       10       11 1
  11       11       12 2
  12       12       13 1
  13       13       14 1
  14       14       15 2
  15       15       16 1
  16       16       17 2
  17       17       18 1
  18       18       14 1
  19       10       19 ar
  20       19        5 ar
  21       18       20 1
  22        6       21 1
  23        7       22 1
  24       11       23 1
  25       13       24 1
  26       17       25 1
  27       19       26 1

@<TRIPOS>MOLECULE

  26   27
SMALL
USER_CHARGES
@<TRIPOS>ATOM
   1 F1           4.3850    -0.9572    -1.9640 F            1    LIG   0.0000
   2 C2           5.2508    -0.2751    -1.2196 C.3          1    LIG   0.0000
   3 F3           5.8385     0.6566    -1.9649 F            1    LIG   0.0000
   4 F4           6.1724    -1.1049    -0.7390 F            1    LIG   0.0000
   5 C5           4.5151     0.3882    -0.0661 C.ar         1    LIG   0.0000
   6 C6           5.2331     0.9823     0.9667 C.ar         1    LIG   0.0000
   7 C7           4.5603     1.5886     2.0222 C.ar         1    LIG   0.0000
   8 C8           3.1692     1.5940     2.0334 C.ar         1    LIG   0.0000
   9 Cl9          2.3289     2.3751     3.3945 Cl           1    LIG   0.0000
  10 C10          2.4510     1.0000     1.0000 C.ar         1    LIG   0.0000
  11 C11          1.0000     1.0000     1.0000 C.2          1    LIG   0.0000
  12 N12          0.3750    -0.0825     0.9979 N.2          1    LIG   0.0000
  13 N13          1.1803    -1.1909     0.9958 N.pl3        1    LIG   0.0000
  14 C14          0.7424    -2.3729     0.3874 C.2          1    LIG   0.0000
  15 N15          1.4172    -3.4957     0.3194 N.2          1    LIG   0.0000
  16 N16          0.6773    -4.3704    -0.3256 N.2          1    LIG   0.0000
  17 C17         -0.4689    -3.8380    -0.6778 C.2          1    LIG   0.0000
  18 N18         -0.4580    -2.5513    -0.2305 N.pl3        1    LIG   0.0000
  19 C19          3.1239     0.3934    -0.0557 C.ar         1    LIG   0.0000
  20 H           -1.1857    -1.8735    -0.3351 H            1    LIG   0.0000
  21 H            6.2330     0.9733     0.9502 H            1    LIG   0.0000
  22 H            5.0723     2.0171     2.7667 H            1    LIG   0.0000
  23 H            0.5000     1.8660     1.0017 H            1    LIG   0.0000
  24 H            2.0809    -1.1554     1.4289 H            1    LIG   0.0000
  25 H           -1.2078    -4.2895    -1.1779 H            1    LIG   0.0000
  26 H            2.6123    -0.0351    -0.8004 H            1    LIG   0.0000
@<TRIPOS>BOND
   1        1        2 1
   2        2        3 1
   3        2        4 1
   4        2        5 1
   5        5        6 ar
   6        6        7 ar
   7        7        8 ar
   8        8        9 1
   9        8       10 ar
  10       10       11 1
  11       11       12 2
  12       12       13 1
  13       13       14 1
  14       14       15 2
  15       15       16 1
  16       16       17 2
  17       17       18 1
  18       18       14 1
  19       10       19 ar
  20       19        5 ar
  21       18       20 1
  22        6       21 1
  23        7       22 1
  24       11       23 1
  25       13       24 1
  26       17       25 1
  27       19       26 1

@<TRIPOS>MOLECULE

  26   27
SMALL
USER_CHARGES
@<TRIPOS>ATOM
   1 F1           4.3850    -0.9572    -1.9640 F            1    LIG   0.0000
   2 C2           5.2508    -0.2751    -1.2196 C.3          1    LIG   0.0000
   3 F3           5.8385     0.6566    -1.9649 F            1    LIG   0.0000
   4 F4           6.1724    -1.1049    -0.7390 F            1    LIG   0.0000
   5 C5           4.5151     0.3882    -0.0661 C.ar         1    LIG   0.0000
   6 C6           5.2331     0.9823     0.9667 C.ar         1    LIG   0.0000
   7 C7           4.5603     1.5886     2.0222 C.ar         1    LIG   0.0000
   8 C8           3.1692     1.5940     2.0334 C.ar         1    LIG   0.0000
   9 Cl9          2.3289     2.3751     3.3945 Cl           1    LIG   0.0000
  10 C10          2.4510     1.0000     1.0000 C.ar         1    LIG   0.0000
  11 C11          1.0000     1.0000     1.0000 C.2          1    LIG   0.0000
  12 N12          0.3750    -0.0825     0.9979 N.2          1    LIG   0.0000
  13 N13          1.1803    -1.1909     0.9958 N.pl3        1    LIG   0.0000
  14 C14          0.7424    -2.3729     0.3874 C.2          1    LIG   0.0000
  15 N15          0.0719    -3.3350     0.9755 N.2          1    LIG   0.0000
  16 N16         -0.1548    -4.2712     0.0807 N.2          1    LIG   0.0000
  17 C17          0.3546    -3.9357    -1.0808 C.2          1    LIG   0.0000
  18 N18          0.9380    -2.7158    -0.9159 N.pl3        1    LIG   0.0000
  19 C19          3.1239     0.3934    -0.0557 C.ar         1    LIG   0.0000
  20 H            1.4145    -2.1794    -1.6125 H            1    LIG   0.0000
  21 H            6.2330     0.9733     0.9502 H            1    LIG   0.0000
  22 H            5.0723     2.0171     2.7667 H            1    LIG   0.0000
  23 H            0.5000     1.8660     1.0017 H            1    LIG   0.0000
  24 H            2.0809    -1.1554     1.4289 H            1    LIG   0.0000
  25 H            0.3211    -4.4718    -1.9243 H            1    LIG   0.0000
  26 H            2.6123    -0.0351    -0.8004 H            1    LIG   0.0000
@<TRIPOS>BOND
   1        1        2 1
   2        2        3 1
   3        2        4 1
   4        2        5 1
   5        5        6 ar
   6        6        7 ar
   7        7        8 ar
   8        8        9 1
   9        8       10 ar
  10       10       11 1
  11       11       12 2
  12       12       13 1
  13       13       14 1
  14       14       15 2
  15       15       16 1
  16       16       17 2
  17       17       18 1
  18       18       14 1
  19       10       19 ar
  20       19        5 ar
  21       18       20 1
  22        6       21 1
  23        7       22 1
  24       11       23 1
  25       13       24 1
  26       17       25 1
  27       19       26 1

@<TRIPOS>MOLECULE

  26   27
SMALL
USER_CHARGES
@<TRIPOS>ATOM
   1 F1           4.3850    -0.9572    -1.9640 F            1    LIG   0.0000
   2 C2           5.2508    -0.2751    -1.2196 C.3          1    LIG   0.0000
   3 F3           5.8385     0.6566    -1.9649 F            1    LIG   0.0000
   4 F4           6.1724    -1.1049    -0.7390 F            1    LIG   0.0000
   5 C5           4.5151     0.3882    -0.0661 C.ar         1    LIG   0.0000
   6 C6           5.2331     0.9823     0.9667 C.ar         1    LIG   0.0000
   7 C7           4.5603     1.5886     2.0222 C.ar         1    LIG   0.0000
   8 C8           3.1692     1.5940     2.0334 C.ar         1    LIG   0.0000
   9 Cl9          2.3289     2.3751     3.3945 Cl           1    LIG   0.0000
  10 C10          2.4510     1.0000     1.0000 C.ar         1    LIG   0.0000
  11 C11          1.0000     1.0000     1.0000 C.2          1    LIG   0.0000
  12 N12          0.3750    -0.0825     0.9979 N.2          1    LIG   0.0000
  13 N13          1.1803    -1.1909     0.9958 N.pl3        1    LIG   0.0000
  14 C14          0.7424    -2.3729     0.3874 C.2          1    LIG   0.0000
  15 N15          0.9331    -2.7057    -0.8670 N.2          1    LIG   0.0000
  16 N16          0.3772    -3.8816    -1.0593 N.2          1    LIG   0.0000
  17 C17         -0.1710    -4.3220     0.0482 C.2          1    LIG   0.0000
  18 N18          0.0494    -3.3725     0.9998 N.pl3        1    LIG   0.0000
  19 C19          3.1239     0.3934    -0.0557 C.ar         1    LIG   0.0000
  20 H           -0.2399    -3.4033     1.9566 H            1    LIG   0.0000
  21 H            6.2330     0.9733     0.9502 H            1    LIG   0.0000
  22 H            5.0723     2.0171     2.7667 H            1    LIG   0.0000
  23 H            0.5000     1.8660     1.0017 H            1    LIG   0.0000
  24 H            2.0809    -1.1554     1.4289 H            1    LIG   0.0000
  25 H           -0.6567    -5.1876     0.1703 H            1    LIG   0.0000
  26 H            2.6123    -0.0351    -0.8004 H            1    LIG   0.0000
@<TRIPOS>BOND
   1        1        2 1
   2        2        3 1
   3        2        4 1
   4        2        5 1
   5        5        6 ar
   6        6        7 ar
   7        7        8 ar
   8        8        9 1
   9        8       10 ar
  10       10       11 1
  11       11       12 2
  12       12       13 1
  13       13       14 1
  14       14       15 2
  15       15       16 1
  16       16       17 2
  17       17       18 1
  18       18       14 1
  19       10       19 ar
  20       19        5 ar
  21       18       20 1
  22        6       21 1
  23        7       22 1
  24       11       23 1
  25       13       24 1
  26       17       25 1
  27       19       26 1

@<TRIPOS>MOLECULE

  26   27
SMALL
USER_CHARGES
@<TRIPOS>ATOM
   1 F1           4.3850    -0.9572    -1.9640 F            1    LIG   0.0000
   2 C2           5.2508    -0.2751    -1.2196 C.3          1    LIG   0.0000
   3 F3           5.8385     0.6566    -1.9649 F            1    LIG   0.0000
   4 F4           6.1724    -1.1049    -0.7390 F            1    LIG   0.0000
   5 C5           4.5151     0.3882    -0.0661 C.ar         1    LIG   0.0000
   6 C6           5.2331     0.9823     0.9667 C.ar         1    LIG   0.0000
   7 C7           4.5603     1.5886     2.0222 C.ar         1    LIG   0.0000
   8 C8           3.1692     1.5940     2.0334 C.ar         1    LIG   0.0000
   9 Cl9          2.3289     2.3751     3.3945 Cl           1    LIG   0.0000
  10 C10          2.4510     1.0000     1.0000 C.ar         1    LIG   0.0000
  11 C11          1.0000     1.0000     1.0000 C.2          1    LIG   0.0000
  12 N12          0.3750    -0.0825     0.9979 N.2          1    LIG   0.0000
  13 N13          1.1803    -1.1909     0.9958 N.pl3        1    LIG   0.0000
  14 C14          0.7424    -2.3729     0.3874 C.2          1    LIG   0.0000
  15 N15         -0.5044    -2.6812     0.1201 N.2          1    LIG   0.0000
  16 N16         -0.5116    -3.8668    -0.4482 N.2          1    LIG   0.0000
  17 C17          0.7086    -4.3361    -0.5576 C.2          1    LIG   0.0000
  18 N18          1.5399    -3.3949    -0.0296 N.pl3        1    LIG   0.0000
  19 C19          3.1239     0.3934    -0.0557 C.ar         1    LIG   0.0000
  20 H            2.5364    -3.4446     0.0383 H            1    LIG   0.0000
  21 H            6.2330     0.9733     0.9502 H            1    LIG   0.0000
  22 H            5.0723     2.0171     2.7667 H            1    LIG   0.0000
  23 H            0.5000     1.8660     1.0017 H            1    LIG   0.0000
  24 H            2.0809    -1.1554     1.4289 H            1    LIG   0.0000
  25 H            0.9767    -5.2149    -0.9524 H            1    LIG   0.0000
  26 H            2.6123    -0.0351    -0.8004 H            1    LIG   0.0000
@<TRIPOS>BOND
   1        1        2 1
   2        2        3 1
   3        2        4 1
   4        2        5 1
   5        5        6 ar
   6        6        7 ar
   7        7        8 ar
   8        8        9 1
   9        8       10 ar
  10       10       11 1
  11       11       12 2
  12       12       13 1
  13       13       14 1
  14       14       15 2
  15       15       16 1
  16       16       17 2
  17       17       18 1
  18       18       14 1
  19       10       19 ar
  20       19        5 ar
  21       18       20 1
  22        6       21 1
  23        7       22 1
  24       11       23 1
  25       13       24 1
  26       17       25 1
  27       19       26 1

