@<TRIPOS>MOLECULE
*****
 26 27 0 0 0
SMALL
USER_CHARGES

@<TRIPOS>ATOM
      1 F1          4.3850   -0.9572   -1.9640 F       1  LIG1        0.0000
      2 C2          5.2508   -0.2751   -1.2196 C.3     1  LIG1        0.0000
      3 F3          5.8385    0.6566   -1.9649 F       1  LIG1        0.0000
      4 F4          6.1724   -1.1049   -0.7390 F       1  LIG1        0.0000
      5 C5          4.5151    0.3882   -0.0661 C.ar    1  LIG1        0.0000
      6 C6          5.2331    0.9823    0.9667 C.ar    1  LIG1        0.0000
      7 C7          4.5603    1.5886    2.0222 C.ar    1  LIG1        0.0000
      8 C8          3.1692    1.5940    2.0334 C.ar    1  LIG1        0.0000
      9 Cl9         2.3289    2.3751    3.3945 Cl      1  LIG1        0.0000
     10 C10         2.4510    1.0000    1.0000 C.ar    1  LIG1        0.0000
     11 C11         1.0000    1.0000    1.0000 C.2     1  LIG1        0.0000
     12 N12         0.3750   -0.0825    0.9979 N.2     1  LIG1        0.0000
     13 N13         1.1803   -1.1909    0.9958 N.pl3   1  LIG1        0.0000
     14 C14         0.7424   -2.3729    0.3874 C.2     1  LIG1        0.0000
     15 N15        -0.5044   -2.6812    0.1201 N.2     1  LIG1        0.0000
     16 N16        -0.5116   -3.8668   -0.4482 N.2     1  LIG1        0.0000
     17 C17         0.7086   -4.3361   -0.5576 C.2     1  LIG1        0.0000
     18 N18         1.5399   -3.3949   -0.0296 N.pl3   1  LIG1        0.0000
     19 C19         3.1239    0.3934   -0.0557 C.ar    1  LIG1        0.0000
     20 H           2.5364   -3.4446    0.0383 H       1  LIG1        0.0000
     21 H           6.2330    0.9733    0.9502 H       1  LIG1        0.0000
     22 H           5.0723    2.0171    2.7667 H       1  LIG1        0.0000
     23 H           0.5000    1.8660    1.0017 H       1  LIG1        0.0000
     24 H           2.0809   -1.1554    1.4289 H       1  LIG1        0.0000
     25 H           0.9767   -5.2149   -0.9524 H       1  LIG1        0.0000
     26 H           2.6123   -0.0351   -0.8004 H       1  LIG1        0.0000
@<TRIPOS>BOND
     1     1     2    1
     2     2     3    1
     3     2     4    1
     4     2     5    1
     5     5     6   ar
     6     6     7   ar
     7     7     8   ar
     8     8     9    1
     9     8    10   ar
    10    10    11    1
    11    11    12    2
    12    12    13    1
    13    13    14    1
    14    14    15    2
    15    15    16    1
    16    16    17    2
    17    17    18    1
    18    18    14    1
    19    10    19   ar
    20    19     5   ar
    21    18    20    1
    22     6    21    1
    23     7    22    1
    24    11    23    1
    25    13    24    1
    26    17    25    1
    27    19    26    1
