@<TRIPOS>MOLECULE
*****
 26 27 0 0 0
SMALL
USER_CHARGES

@<TRIPOS>ATOM
      1 F1          6.5459    0.0091    3.1422 F       1  LIG1        0.0000
      2 C2          5.2508   -0.2847    3.2141 C.3     1  LIG1        0.0000
      3 F3          4.7596    0.1558    4.3689 F       1  LIG1        0.0000
      4 F4          5.0903   -1.6028    3.1380 F       1  LIG1        0.0000
      5 C5          4.5151    0.3827    2.0629 C.ar    1  LIG1        0.0000
      6 C6          5.2331    0.9800    1.0320 C.ar    1  LIG1        0.0000
      7 C7          4.5603    1.5909   -0.0208 C.ar    1  LIG1        0.0000
      8 C8          3.1692    1.5980   -0.0311 C.ar    1  LIG1        0.0000
      9 Cl9         2.3289    2.3862   -1.3881 Cl      1  LIG1        0.0000
     10 C10         2.4510    1.0000    1.0000 C.ar    1  LIG1        0.0000
     11 C11         1.0000    1.0000    1.0000 C.2     1  LIG1        0.0000
     12 N12         0.3750   -0.0825    0.9979 N.2     1  LIG1        0.0000
     13 N13         1.1803   -1.1909    0.9958 N.pl3   1  LIG1        0.0000
     14 C14         0.6110   -2.4695    0.9933 C.2     1  LIG1        0.0000
     15 N15         0.2991   -3.1678   -0.0725 N.2     1  LIG1        0.0000
     16 N16        -0.2099   -4.3109    0.3313 N.2     1  LIG1        0.0000
     17 C17        -0.2337   -4.3707    1.6416 C.2     1  LIG1        0.0000
     18 N18         0.2908   -3.1992    2.0977 N.pl3   1  LIG1        0.0000
     19 C19         3.1239    0.3890    2.0532 C.ar    1  LIG1        0.0000
     20 H           0.4158   -2.9290    3.0524 H       1  LIG1        0.0000
     21 H           6.2330    0.9702    1.0480 H       1  LIG1        0.0000
     22 H           5.0723    2.0215   -0.7642 H       1  LIG1        0.0000
     23 H           0.5000    1.8660    1.0017 H       1  LIG1        0.0000
     24 H           2.1748   -1.0864    0.9960 H       1  LIG1        0.0000
     25 H          -0.5717   -5.1297    2.1981 H       1  LIG1        0.0000
     26 H           2.6123   -0.0417    2.7967 H       1  LIG1        0.0000
@<TRIPOS>BOND
     1     1     2    1
     2     2     3    1
     3     2     4    1
     4     2     5    1
     5     5     6   ar
     6     6     7   ar
     7     7     8   ar
     8     8     9    1
     9     8    10   ar
    10    10    11    1
    11    11    12    2
    12    12    13    1
    13    13    14    1
    14    14    15    2
    15    15    16    1
    16    16    17    2
    17    17    18    1
    18    18    14    1
    19    10    19   ar
    20    19     5   ar
    21    18    20    1
    22     6    21    1
    23     7    22    1
    24    11    23    1
    25    13    24    1
    26    17    25    1
    27    19    26    1
