@<TRIPOS>MOLECULE

  25   27
SMALL
USER_CHARGES
@<TRIPOS>ATOM
   1 C1           1.0352     2.2303     0.2371 C.2          1    LIG   0.0000
   2 C2          -0.0243     1.5325    -0.1333 C.2          1    LIG   0.0000
   3 C3          -1.3286     2.1588    -0.2441 C.ar         1    LIG   0.0000
   4 C4          -2.3898     1.3533    -0.6398 C.ar         1    LIG   0.0000
   5 N5          -3.6086     1.8967    -0.7472 N.ar         1    LIG   0.0000
   6 C6          -3.7371     3.1989    -0.4675 C.ar         1    LIG   0.0000
   7 S7          -5.2100     4.0395    -0.5415 S.3          1    LIG   0.0000
   8 C8          -4.5878     5.5526    -0.0750 C.2          1    LIG   0.0000
   9 N9          -3.2966     5.3950     0.1293 N.2          1    LIG   0.0000
  10 C10         -2.7941     4.1278    -0.0695 C.ar         1    LIG   0.0000
  11 C11         -1.5460     3.5106     0.0296 C.ar         1    LIG   0.0000
  12 C12          0.1256     0.0546    -0.4456 C.3          1    LIG   0.0000
  13 C13          1.3893    -0.5113     0.1830 C.3          1    LIG   0.0000
  14 O14          2.4580     0.3081    -0.2630 O.3          1    LIG   0.0000
  15 C15          2.3962     1.5740     0.3849 C.3          1    LIG   0.0000
  16 H            0.9387     3.2081     0.4233 H            1    LIG   0.0000
  17 H           -2.2455     0.3844    -0.8408 H            1    LIG   0.0000
  18 H           -5.1056     6.4022     0.0252 H            1    LIG   0.0000
  19 H           -0.7647     4.0672     0.3121 H            1    LIG   0.0000
  20 H            0.1712    -0.0668    -1.4372 H            1    LIG   0.0000
  21 H           -0.6671    -0.4374    -0.0857 H            1    LIG   0.0000
  22 H            1.3231    -0.4814     1.1804 H            1    LIG   0.0000
  23 H            1.5303    -1.4559    -0.1134 H            1    LIG   0.0000
  24 H            3.0881     2.1746    -0.0158 H            1    LIG   0.0000
  25 H            2.5881     1.4470     1.3580 H            1    LIG   0.0000
@<TRIPOS>BOND
   1        1        2 2
   2        2        3 1
   3        3        4 ar
   4        4        5 ar
   5        5        6 ar
   6        6        7 1
   7        7        8 1
   8        8        9 2
   9        9       10 1
  10       10        6 ar
  11       10       11 ar
  12       11        3 ar
  13        2       12 1
  14       12       13 1
  15       13       14 1
  16       14       15 1
  17       15        1 1
  18        1       16 1
  19        4       17 1
  20        8       18 1
  21       11       19 1
  22       12       20 1
  23       12       21 1
  24       13       22 1
  25       13       23 1
  26       15       24 1
  27       15       25 1

@<TRIPOS>MOLECULE

  25   27
SMALL
USER_CHARGES
@<TRIPOS>ATOM
   1 C1           1.0352     2.2303     0.2371 C.2          1    LIG   0.0000
   2 C2          -0.0243     1.5325    -0.1333 C.2          1    LIG   0.0000
   3 C3          -1.3286     2.1588    -0.2441 C.ar         1    LIG   0.0000
   4 C4          -2.1329     2.1588     0.8893 C.ar         1    LIG   0.0000
   5 N5          -3.3407     2.7329     0.8246 N.ar         1    LIG   0.0000
   6 C6          -3.7103     3.2773    -0.3404 C.ar         1    LIG   0.0000
   7 S7          -5.1992     4.0536    -0.5896 S.3          1    LIG   0.0000
   8 C8          -4.9345     4.4505    -2.2226 C.2          1    LIG   0.0000
   9 N9          -3.7400     3.9986    -2.5432 N.2          1    LIG   0.0000
  10 C10         -3.0387     3.3571    -1.5459 C.ar         1    LIG   0.0000
  11 C11         -1.7885     2.7485    -1.4233 C.ar         1    LIG   0.0000
  12 C12          0.1256     0.0546    -0.4456 C.3          1    LIG   0.0000
  13 C13          1.3893    -0.5113     0.1830 C.3          1    LIG   0.0000
  14 O14          2.4580     0.3081    -0.2630 O.3          1    LIG   0.0000
  15 C15          2.3962     1.5740     0.3849 C.3          1    LIG   0.0000
  16 H            0.9387     3.2081     0.4233 H            1    LIG   0.0000
  17 H           -1.8150     1.7373     1.7386 H            1    LIG   0.0000
  18 H           -5.5674     4.9359    -2.8258 H            1    LIG   0.0000
  19 H           -1.1894     2.7340    -2.2238 H            1    LIG   0.0000
  20 H            0.1712    -0.0668    -1.4372 H            1    LIG   0.0000
  21 H           -0.6671    -0.4374    -0.0857 H            1    LIG   0.0000
  22 H            1.3231    -0.4814     1.1804 H            1    LIG   0.0000
  23 H            1.5303    -1.4559    -0.1134 H            1    LIG   0.0000
  24 H            3.0881     2.1746    -0.0158 H            1    LIG   0.0000
  25 H            2.5881     1.4470     1.3580 H            1    LIG   0.0000
@<TRIPOS>BOND
   1        1        2 2
   2        2        3 1
   3        3        4 ar
   4        4        5 ar
   5        5        6 ar
   6        6        7 1
   7        7        8 1
   8        8        9 2
   9        9       10 1
  10       10        6 ar
  11       10       11 ar
  12       11        3 ar
  13        2       12 1
  14       12       13 1
  15       13       14 1
  16       14       15 1
  17       15        1 1
  18        1       16 1
  19        4       17 1
  20        8       18 1
  21       11       19 1
  22       12       20 1
  23       12       21 1
  24       13       22 1
  25       13       23 1
  26       15       24 1
  27       15       25 1

@<TRIPOS>MOLECULE

  25   27
SMALL
USER_CHARGES
@<TRIPOS>ATOM
   1 C1           1.0352     2.2303     0.2371 C.2          1    LIG   0.0000
   2 C2          -0.0243     1.5325    -0.1333 C.2          1    LIG   0.0000
   3 C3          -1.3286     2.1588    -0.2441 C.ar         1    LIG   0.0000
   4 C4          -1.6684     2.7081    -1.4747 C.ar         1    LIG   0.0000
   5 N5          -2.8664     3.2891    -1.6144 N.ar         1    LIG   0.0000
   6 C6          -3.6763     3.3110    -0.5495 C.ar         1    LIG   0.0000
   7 S7          -5.2297     3.9955    -0.5589 S.3          1    LIG   0.0000
   8 C8          -5.5988     3.6488     1.0652 C.2          1    LIG   0.0000
   9 N9          -4.5566     3.0267     1.5759 N.2          1    LIG   0.0000
  10 C10         -3.4902     2.8194     0.7288 C.ar         1    LIG   0.0000
  11 C11         -2.2312     2.2233     0.8193 C.ar         1    LIG   0.0000
  12 C12          0.1256     0.0546    -0.4456 C.3          1    LIG   0.0000
  13 C13          1.3893    -0.5113     0.1830 C.3          1    LIG   0.0000
  14 O14          2.4580     0.3081    -0.2630 O.3          1    LIG   0.0000
  15 C15          2.3962     1.5740     0.3849 C.3          1    LIG   0.0000
  16 H            0.9387     3.2081     0.4233 H            1    LIG   0.0000
  17 H           -1.0290     2.6700    -2.2426 H            1    LIG   0.0000
  18 H           -6.4480     3.8750     1.5425 H            1    LIG   0.0000
  19 H           -1.9609     1.8203     1.6937 H            1    LIG   0.0000
  20 H            0.1712    -0.0668    -1.4372 H            1    LIG   0.0000
  21 H           -0.6671    -0.4374    -0.0857 H            1    LIG   0.0000
  22 H            1.3231    -0.4814     1.1804 H            1    LIG   0.0000
  23 H            1.5303    -1.4559    -0.1134 H            1    LIG   0.0000
  24 H            3.0881     2.1746    -0.0158 H            1    LIG   0.0000
  25 H            2.5881     1.4470     1.3580 H            1    LIG   0.0000
@<TRIPOS>BOND
   1        1        2 2
   2        2        3 1
   3        3        4 ar
   4        4        5 ar
   5        5        6 ar
   6        6        7 1
   7        7        8 1
   8        8        9 2
   9        9       10 1
  10       10        6 ar
  11       10       11 ar
  12       11        3 ar
  13        2       12 1
  14       12       13 1
  15       13       14 1
  16       14       15 1
  17       15        1 1
  18        1       16 1
  19        4       17 1
  20        8       18 1
  21       11       19 1
  22       12       20 1
  23       12       21 1
  24       13       22 1
  25       13       23 1
  26       15       24 1
  27       15       25 1

@<TRIPOS>MOLECULE

  25   27
SMALL
USER_CHARGES
@<TRIPOS>ATOM
   1 C1           1.0352     2.2303     0.2371 C.2          1    LIG   0.0000
   2 C2          -0.0243     1.5325    -0.1333 C.2          1    LIG   0.0000
   3 C3          -1.3286     2.1588    -0.2441 C.ar         1    LIG   0.0000
   4 C4          -1.4115     3.5136     0.0544 C.ar         1    LIG   0.0000
   5 N5          -2.5985     4.1253    -0.0426 N.ar         1    LIG   0.0000
   6 C6          -3.6495     3.3894    -0.4225 C.ar         1    LIG   0.0000
   7 S7          -5.2188     4.0096    -0.6069 S.3          1    LIG   0.0000
   8 C8          -5.9455     2.5467    -1.0823 C.2          1    LIG   0.0000
   9 N9          -5.0001     1.6303    -1.0966 N.2          1    LIG   0.0000
  10 C10         -3.7348     2.0487    -0.7477 C.ar         1    LIG   0.0000
  11 C11         -2.4737     1.4611    -0.6335 C.ar         1    LIG   0.0000
  12 C12          0.1256     0.0546    -0.4456 C.3          1    LIG   0.0000
  13 C13          1.3893    -0.5113     0.1830 C.3          1    LIG   0.0000
  14 O14          2.4580     0.3081    -0.2630 O.3          1    LIG   0.0000
  15 C15          2.3962     1.5740     0.3849 C.3          1    LIG   0.0000
  16 H            0.9387     3.2081     0.4233 H            1    LIG   0.0000
  17 H           -0.5985     4.0229     0.3368 H            1    LIG   0.0000
  18 H           -6.9098     2.4086    -1.3084 H            1    LIG   0.0000
  19 H           -2.3856     0.4871    -0.8421 H            1    LIG   0.0000
  20 H            0.1712    -0.0668    -1.4372 H            1    LIG   0.0000
  21 H           -0.6671    -0.4374    -0.0857 H            1    LIG   0.0000
  22 H            1.3231    -0.4814     1.1804 H            1    LIG   0.0000
  23 H            1.5303    -1.4559    -0.1134 H            1    LIG   0.0000
  24 H            3.0881     2.1746    -0.0158 H            1    LIG   0.0000
  25 H            2.5881     1.4470     1.3580 H            1    LIG   0.0000
@<TRIPOS>BOND
   1        1        2 2
   2        2        3 1
   3        3        4 ar
   4        4        5 ar
   5        5        6 ar
   6        6        7 1
   7        7        8 1
   8        8        9 2
   9        9       10 1
  10       10        6 ar
  11       10       11 ar
  12       11        3 ar
  13        2       12 1
  14       12       13 1
  15       13       14 1
  16       14       15 1
  17       15        1 1
  18        1       16 1
  19        4       17 1
  20        8       18 1
  21       11       19 1
  22       12       20 1
  23       12       21 1
  24       13       22 1
  25       13       23 1
  26       15       24 1
  27       15       25 1

@<TRIPOS>MOLECULE

  25   27
SMALL
USER_CHARGES
@<TRIPOS>ATOM
   1 C1          -0.0262    -0.7080    -1.2065 C.2          1    LIG   0.0000
   2 C2          -0.4186    -1.3422    -0.1176 C.2          1    LIG   0.0000
   3 C3          -0.8104    -2.7375    -0.1916 C.ar         1    LIG   0.0000
   4 C4          -1.7662    -3.1790     0.7157 C.ar         1    LIG   0.0000
   5 N5          -2.1554    -4.4592     0.6725 N.ar         1    LIG   0.0000
   6 C6          -1.5944    -5.2504    -0.2493 C.ar         1    LIG   0.0000
   7 S7          -1.9821    -6.8910    -0.4476 S.3          1    LIG   0.0000
   8 C8          -0.9140    -7.1830    -1.7391 C.2          1    LIG   0.0000
   9 N9          -0.2958    -6.0490    -1.9955 N.2          1    LIG   0.0000
  10 C10         -0.6403    -4.9712    -1.2097 C.ar         1    LIG   0.0000
  11 C11         -0.2726    -3.6274    -1.1235 C.ar         1    LIG   0.0000
  12 C12         -0.4559    -0.6076     1.2154 C.3          1    LIG   0.0000
  13 C13          0.4181     0.6311     1.1834 C.3          1    LIG   0.0000
  14 O14          0.0185     1.3922     0.0520 O.3          1    LIG   0.0000
  15 C15          0.4156     0.7483    -1.1519 C.3          1    LIG   0.0000
  16 H           -0.0189    -1.1917    -2.0817 H            1    LIG   0.0000
  17 H           -2.1564    -2.5512     1.3892 H            1    LIG   0.0000
  18 H           -0.7807    -8.0527    -2.2144 H            1    LIG   0.0000
  19 H            0.4136    -3.2831    -1.7643 H            1    LIG   0.0000
  20 H           -0.1275    -1.2200     1.9346 H            1    LIG   0.0000
  21 H           -1.3982    -0.3371     1.4125 H            1    LIG   0.0000
  22 H            0.2885     1.1645     2.0193 H            1    LIG   0.0000
  23 H            1.3800     0.3707     1.0999 H            1    LIG   0.0000
  24 H            1.4126     0.7839    -1.2211 H            1    LIG   0.0000
  25 H            0.0102     1.2357    -1.9252 H            1    LIG   0.0000
@<TRIPOS>BOND
   1        1        2 2
   2        2        3 1
   3        3        4 ar
   4        4        5 ar
   5        5        6 ar
   6        6        7 1
   7        7        8 1
   8        8        9 2
   9        9       10 1
  10       10        6 ar
  11       10       11 ar
  12       11        3 ar
  13        2       12 1
  14       12       13 1
  15       13       14 1
  16       14       15 1
  17       15        1 1
  18        1       16 1
  19        4       17 1
  20        8       18 1
  21       11       19 1
  22       12       20 1
  23       12       21 1
  24       13       22 1
  25       13       23 1
  26       15       24 1
  27       15       25 1

@<TRIPOS>MOLECULE

  25   27
SMALL
USER_CHARGES
@<TRIPOS>ATOM
   1 C1          -0.0262    -0.7080    -1.2065 C.2          1    LIG   0.0000
   2 C2          -0.4186    -1.3422    -0.1176 C.2          1    LIG   0.0000
   3 C3          -0.8104    -2.7375    -0.1916 C.ar         1    LIG   0.0000
   4 C4          -0.5993    -3.5185     0.9384 C.ar         1    LIG   0.0000
   5 N5          -0.9541    -4.8090     0.9075 N.ar         1    LIG   0.0000
   6 C6          -1.4948    -5.2798    -0.2223 C.ar         1    LIG   0.0000
   7 S7          -2.0099    -6.8844    -0.4253 S.3          1    LIG   0.0000
   8 C8          -2.5462    -6.7092    -2.0302 C.2          1    LIG   0.0000
   9 N9          -2.3327    -5.4568    -2.3763 N.2          1    LIG   0.0000
  10 C10         -1.7654    -4.6441    -1.4195 C.ar         1    LIG   0.0000
  11 C11         -1.3806    -3.3051    -1.3328 C.ar         1    LIG   0.0000
  12 C12         -0.4559    -0.6076     1.2154 C.3          1    LIG   0.0000
  13 C13          0.4181     0.6311     1.1834 C.3          1    LIG   0.0000
  14 O14          0.0185     1.3922     0.0520 O.3          1    LIG   0.0000
  15 C15          0.4156     0.7483    -1.1519 C.3          1    LIG   0.0000
  16 H           -0.0189    -1.1917    -2.0817 H            1    LIG   0.0000
  17 H           -0.1894    -3.1233     1.7605 H            1    LIG   0.0000
  18 H           -2.9482    -7.4234    -2.6033 H            1    LIG   0.0000
  19 H           -1.5209    -2.7204    -2.1317 H            1    LIG   0.0000
  20 H           -0.1275    -1.2200     1.9346 H            1    LIG   0.0000
  21 H           -1.3982    -0.3371     1.4125 H            1    LIG   0.0000
  22 H            0.2885     1.1645     2.0193 H            1    LIG   0.0000
  23 H            1.3800     0.3707     1.0999 H            1    LIG   0.0000
  24 H            1.4126     0.7839    -1.2211 H            1    LIG   0.0000
  25 H            0.0102     1.2357    -1.9252 H            1    LIG   0.0000
@<TRIPOS>BOND
   1        1        2 2
   2        2        3 1
   3        3        4 ar
   4        4        5 ar
   5        5        6 ar
   6        6        7 1
   7        7        8 1
   8        8        9 2
   9        9       10 1
  10       10        6 ar
  11       10       11 ar
  12       11        3 ar
  13        2       12 1
  14       12       13 1
  15       13       14 1
  16       14       15 1
  17       15        1 1
  18        1       16 1
  19        4       17 1
  20        8       18 1
  21       11       19 1
  22       12       20 1
  23       12       21 1
  24       13       22 1
  25       13       23 1
  26       15       24 1
  27       15       25 1

@<TRIPOS>MOLECULE

  25   27
SMALL
USER_CHARGES
@<TRIPOS>ATOM
   1 C1          -0.0262    -0.7080    -1.2065 C.2          1    LIG   0.0000
   2 C2          -0.4186    -1.3422    -0.1176 C.2          1    LIG   0.0000
   3 C3          -0.8104    -2.7375    -0.1916 C.ar         1    LIG   0.0000
   4 C4          -0.1983    -3.5197    -1.1636 C.ar         1    LIG   0.0000
   5 N5          -0.5318    -4.8130    -1.2568 N.ar         1    LIG   0.0000
   6 C6          -1.4472    -5.2836    -0.4018 C.ar         1    LIG   0.0000
   7 S7          -1.9733    -6.8973    -0.3759 S.3          1    LIG   0.0000
   8 C8          -3.0728    -6.7171     0.9096 C.2          1    LIG   0.0000
   9 N9          -3.0191    -5.4585     1.2928 N.2          1    LIG   0.0000
  10 C10         -2.1436    -4.6453     0.6072 C.ar         1    LIG   0.0000
  11 C11         -1.7575    -3.3050     0.6632 C.ar         1    LIG   0.0000
  12 C12         -0.4559    -0.6076     1.2154 C.3          1    LIG   0.0000
  13 C13          0.4181     0.6311     1.1834 C.3          1    LIG   0.0000
  14 O14          0.0185     1.3922     0.0520 O.3          1    LIG   0.0000
  15 C15          0.4156     0.7483    -1.1519 C.3          1    LIG   0.0000
  16 H           -0.0189    -1.1917    -2.0817 H            1    LIG   0.0000
  17 H            0.4795    -3.1234    -1.7829 H            1    LIG   0.0000
  18 H           -3.6514    -7.4328     1.3009 H            1    LIG   0.0000
  19 H           -2.1825    -2.7192     1.3532 H            1    LIG   0.0000
  20 H           -0.1275    -1.2200     1.9346 H            1    LIG   0.0000
  21 H           -1.3982    -0.3371     1.4125 H            1    LIG   0.0000
  22 H            0.2885     1.1645     2.0193 H            1    LIG   0.0000
  23 H            1.3800     0.3707     1.0999 H            1    LIG   0.0000
  24 H            1.4126     0.7839    -1.2211 H            1    LIG   0.0000
  25 H            0.0102     1.2357    -1.9252 H            1    LIG   0.0000
@<TRIPOS>BOND
   1        1        2 2
   2        2        3 1
   3        3        4 ar
   4        4        5 ar
   5        5        6 ar
   6        6        7 1
   7        7        8 1
   8        8        9 2
   9        9       10 1
  10       10        6 ar
  11       10       11 ar
  12       11        3 ar
  13        2       12 1
  14       12       13 1
  15       13       14 1
  16       14       15 1
  17       15        1 1
  18        1       16 1
  19        4       17 1
  20        8       18 1
  21       11       19 1
  22       12       20 1
  23       12       21 1
  24       13       22 1
  25       13       23 1
  26       15       24 1
  27       15       25 1

@<TRIPOS>MOLECULE

  25   27
SMALL
USER_CHARGES
@<TRIPOS>ATOM
   1 C1          -0.0262    -0.7080    -1.2065 C.2          1    LIG   0.0000
   2 C2          -0.4186    -1.3422    -0.1176 C.2          1    LIG   0.0000
   3 C3          -0.8104    -2.7375    -0.1916 C.ar         1    LIG   0.0000
   4 C4          -1.3652    -3.1802    -1.3864 C.ar         1    LIG   0.0000
   5 N5          -1.7331    -4.4632    -1.4918 N.ar         1    LIG   0.0000
   6 C6          -1.5467    -5.2542    -0.4289 C.ar         1    LIG   0.0000
   7 S7          -1.9455    -6.9039    -0.3983 S.3          1    LIG   0.0000
   8 C8          -1.4406    -7.1909     1.2007 C.2          1    LIG   0.0000
   9 N9          -0.9822    -6.0507     1.6736 N.2          1    LIG   0.0000
  10 C10         -1.0185    -4.9724     0.8170 C.ar         1    LIG   0.0000
  11 C11         -0.6495    -3.6272     0.8724 C.ar         1    LIG   0.0000
  12 C12         -0.4559    -0.6076     1.2154 C.3          1    LIG   0.0000
  13 C13          0.4181     0.6311     1.1834 C.3          1    LIG   0.0000
  14 O14          0.0185     1.3922     0.0520 O.3          1    LIG   0.0000
  15 C15          0.4156     0.7483    -1.1519 C.3          1    LIG   0.0000
  16 H           -0.0189    -1.1917    -2.0817 H            1    LIG   0.0000
  17 H           -1.4875    -2.5514    -2.1542 H            1    LIG   0.0000
  18 H           -1.4838    -8.0621     1.6898 H            1    LIG   0.0000
  19 H           -0.2480    -3.2819     1.7207 H            1    LIG   0.0000
  20 H           -0.1275    -1.2200     1.9346 H            1    LIG   0.0000
  21 H           -1.3982    -0.3371     1.4125 H            1    LIG   0.0000
  22 H            0.2885     1.1645     2.0193 H            1    LIG   0.0000
  23 H            1.3800     0.3707     1.0999 H            1    LIG   0.0000
  24 H            1.4126     0.7839    -1.2211 H            1    LIG   0.0000
  25 H            0.0102     1.2357    -1.9252 H            1    LIG   0.0000
@<TRIPOS>BOND
   1        1        2 2
   2        2        3 1
   3        3        4 ar
   4        4        5 ar
   5        5        6 ar
   6        6        7 1
   7        7        8 1
   8        8        9 2
   9        9       10 1
  10       10        6 ar
  11       10       11 ar
  12       11        3 ar
  13        2       12 1
  14       12       13 1
  15       13       14 1
  16       14       15 1
  17       15        1 1
  18        1       16 1
  19        4       17 1
  20        8       18 1
  21       11       19 1
  22       12       20 1
  23       12       21 1
  24       13       22 1
  25       13       23 1
  26       15       24 1
  27       15       25 1

@<TRIPOS>MOLECULE

  25   27
SMALL
USER_CHARGES
@<TRIPOS>ATOM
   1 C1          -1.1089    -0.0594     0.0417 C.2          1    LIG   0.0000
   2 C2          -0.3079    -1.1082    -0.0178 C.2          1    LIG   0.0000
   3 C3          -0.7710    -2.3563    -0.5952 C.ar         1    LIG   0.0000
   4 C4          -0.2190    -3.5310    -0.0982 C.ar         1    LIG   0.0000
   5 N5          -0.6272    -4.7014    -0.6040 N.ar         1    LIG   0.0000
   6 C6          -1.5511    -4.6738    -1.5715 C.ar         1    LIG   0.0000
   7 S7          -2.1852    -6.0639    -2.3112 S.3          1    LIG   0.0000
   8 C8          -3.2378    -5.2504    -3.3715 C.2          1    LIG   0.0000
   9 N9          -3.0952    -3.9608    -3.1465 N.2          1    LIG   0.0000
  10 C10         -2.1895    -3.6047    -2.1714 C.ar         1    LIG   0.0000
  11 C11         -1.7313    -2.4130    -1.6072 C.ar         1    LIG   0.0000
  12 C12          1.1143    -0.9389     0.5093 C.3          1    LIG   0.0000
  13 C13          1.6892     0.4682     0.3567 C.3          1    LIG   0.0000
  14 O14          0.7259     1.4804     0.0642 O.3          1    LIG   0.0000
  15 C15         -0.5686     1.2421     0.6123 C.3          1    LIG   0.0000
  16 H           -2.0530    -0.1204    -0.2826 H            1    LIG   0.0000
  17 H            0.4713    -3.5024     0.6248 H            1    LIG   0.0000
  18 H           -3.8500    -5.6724    -4.0402 H            1    LIG   0.0000
  19 H           -2.1116    -1.5526    -1.9465 H            1    LIG   0.0000
  20 H            1.7076    -1.5731     0.0135 H            1    LIG   0.0000
  21 H            1.1158    -1.1721     1.4817 H            1    LIG   0.0000
  22 H            2.1464     0.7118     1.2120 H            1    LIG   0.0000
  23 H            2.3585     0.4519    -0.3861 H            1    LIG   0.0000
  24 H           -1.1803     1.9951     0.3699 H            1    LIG   0.0000
  25 H           -0.5046     1.1718     1.6078 H            1    LIG   0.0000
@<TRIPOS>BOND
   1        1        2 2
   2        2        3 1
   3        3        4 ar
   4        4        5 ar
   5        5        6 ar
   6        6        7 1
   7        7        8 1
   8        8        9 2
   9        9       10 1
  10       10        6 ar
  11       10       11 ar
  12       11        3 ar
  13        2       12 1
  14       12       13 1
  15       13       14 1
  16       14       15 1
  17       15        1 1
  18        1       16 1
  19        4       17 1
  20        8       18 1
  21       11       19 1
  22       12       20 1
  23       12       21 1
  24       13       22 1
  25       13       23 1
  26       15       24 1
  27       15       25 1

@<TRIPOS>MOLECULE

  25   27
SMALL
USER_CHARGES
@<TRIPOS>ATOM
   1 C1          -1.2614    -0.1823    -0.2669 C.2          1    LIG   0.0000
   2 C2          -0.4823    -1.2396    -0.1654 C.2          1    LIG   0.0000
   3 C3          -1.0547    -2.5729    -0.1429 C.ar         1    LIG   0.0000
   4 C4          -0.3670    -3.5488     0.5685 C.ar         1    LIG   0.0000
   5 N5          -0.8693    -4.7890     0.6152 N.ar         1    LIG   0.0000
   6 C6          -2.0153    -5.0220    -0.0349 C.ar         1    LIG   0.0000
   7 S7          -2.7924    -6.5309    -0.0672 S.3          1    LIG   0.0000
   8 C8          -4.1035    -6.0476    -1.0376 C.2          1    LIG   0.0000
   9 N9          -3.9338    -4.7708    -1.3116 N.2          1    LIG   0.0000
  10 C10         -2.8113    -4.1736    -0.7814 C.ar         1    LIG   0.0000
  11 C11         -2.2459    -2.8974    -0.7953 C.ar         1    LIG   0.0000
  12 C12          1.0206    -1.0049    -0.0513 C.3          1    LIG   0.0000
  13 C13          1.3645     0.2377     0.7633 C.3          1    LIG   0.0000
  14 O14          0.3347     1.2282     0.8095 O.3          1    LIG   0.0000
  15 C15         -0.6135     1.1924    -0.2526 C.3          1    LIG   0.0000
  16 H           -2.2529    -0.2815    -0.3512 H            1    LIG   0.0000
  17 H            0.4882    -3.3285     1.0375 H            1    LIG   0.0000
  18 H           -4.8610    -6.6248    -1.3426 H            1    LIG   0.0000
  19 H           -2.7199    -2.1759    -1.3001 H            1    LIG   0.0000
  20 H            1.3981    -0.8986    -0.9711 H            1    LIG   0.0000
  21 H            1.4357    -1.8009     0.3894 H            1    LIG   0.0000
  22 H            1.5621    -0.0495     1.7006 H            1    LIG   0.0000
  23 H            2.1804     0.6557     0.3638 H            1    LIG   0.0000
  24 H           -0.1517     1.3578    -1.1240 H            1    LIG   0.0000
  25 H           -1.3113     1.8937    -0.1068 H            1    LIG   0.0000
@<TRIPOS>BOND
   1        1        2 2
   2        2        3 1
   3        3        4 ar
   4        4        5 ar
   5        5        6 ar
   6        6        7 1
   7        7        8 1
   8        8        9 2
   9        9       10 1
  10       10        6 ar
  11       10       11 ar
  12       11        3 ar
  13        2       12 1
  14       12       13 1
  15       13       14 1
  16       14       15 1
  17       15        1 1
  18        1       16 1
  19        4       17 1
  20        8       18 1
  21       11       19 1
  22       12       20 1
  23       12       21 1
  24       13       22 1
  25       13       23 1
  26       15       24 1
  27       15       25 1

@<TRIPOS>MOLECULE

  25   27
SMALL
USER_CHARGES
@<TRIPOS>ATOM
   1 C1          -1.2614    -0.1823    -0.2669 C.2          1    LIG   0.0000
   2 C2          -0.4823    -1.2396    -0.1654 C.2          1    LIG   0.0000
   3 C3          -1.0547    -2.5729    -0.1429 C.ar         1    LIG   0.0000
   4 C4          -0.2834    -3.6055    -0.6628 C.ar         1    LIG   0.0000
   5 N5          -0.7780    -4.8495    -0.6532 N.ar         1    LIG   0.0000
   6 C6          -2.0009    -5.0300    -0.1409 C.ar         1    LIG   0.0000
   7 S7          -2.7691    -6.5404    -0.0411 S.3          1    LIG   0.0000
   8 C8          -4.2018    -5.9764     0.6825 C.2          1    LIG   0.0000
   9 N9          -4.0724    -4.6751     0.8370 N.2          1    LIG   0.0000
  10 C10         -2.8873    -4.1209     0.4053 C.ar         1    LIG   0.0000
  11 C11         -2.3232    -2.8445     0.3737 C.ar         1    LIG   0.0000
  12 C12          1.0206    -1.0049    -0.0513 C.3          1    LIG   0.0000
  13 C13          1.3645     0.2377     0.7633 C.3          1    LIG   0.0000
  14 O14          0.3347     1.2282     0.8095 O.3          1    LIG   0.0000
  15 C15         -0.6135     1.1924    -0.2526 C.3          1    LIG   0.0000
  16 H           -2.2529    -0.2815    -0.3512 H            1    LIG   0.0000
  17 H            0.6254    -3.4224    -1.0377 H            1    LIG   0.0000
  18 H           -4.9936    -6.5293     0.9419 H            1    LIG   0.0000
  19 H           -2.8568    -2.0827     0.7412 H            1    LIG   0.0000
  20 H            1.3981    -0.8986    -0.9711 H            1    LIG   0.0000
  21 H            1.4357    -1.8009     0.3894 H            1    LIG   0.0000
  22 H            1.5621    -0.0495     1.7006 H            1    LIG   0.0000
  23 H            2.1804     0.6557     0.3638 H            1    LIG   0.0000
  24 H           -0.1517     1.3578    -1.1240 H            1    LIG   0.0000
  25 H           -1.3113     1.8937    -0.1068 H            1    LIG   0.0000
@<TRIPOS>BOND
   1        1        2 2
   2        2        3 1
   3        3        4 ar
   4        4        5 ar
   5        5        6 ar
   6        6        7 1
   7        7        8 1
   8        8        9 2
   9        9       10 1
  10       10        6 ar
  11       10       11 ar
  12       11        3 ar
  13        2       12 1
  14       12       13 1
  15       13       14 1
  16       14       15 1
  17       15        1 1
  18        1       16 1
  19        4       17 1
  20        8       18 1
  21       11       19 1
  22       12       20 1
  23       12       21 1
  24       13       22 1
  25       13       23 1
  26       15       24 1
  27       15       25 1

@<TRIPOS>MOLECULE

  25   27
SMALL
USER_CHARGES
@<TRIPOS>ATOM
   1 C1          -1.2614    -0.1823    -0.2669 C.2          1    LIG   0.0000
   2 C2          -0.4823    -1.2396    -0.1654 C.2          1    LIG   0.0000
   3 C3          -1.0547    -2.5729    -0.1429 C.ar         1    LIG   0.0000
   4 C4          -1.3894    -3.1010     1.0983 C.ar         1    LIG   0.0000
   5 N5          -1.9250    -4.3266     1.1561 N.ar         1    LIG   0.0000
   6 C6          -2.1070    -4.9820     0.0038 C.ar         1    LIG   0.0000
   7 S7          -2.7834    -6.5353    -0.1021 S.3          1    LIG   0.0000
   8 C8          -2.6848    -6.6695    -1.7951 C.2          1    LIG   0.0000
   9 N9          -2.1536    -5.5509    -2.2429 N.2          1    LIG   0.0000
  10 C10         -1.8283    -4.6043    -1.2963 C.ar         1    LIG   0.0000
  11 C11         -1.2764    -3.3221    -1.3001 C.ar         1    LIG   0.0000
  12 C12          1.0206    -1.0049    -0.0513 C.3          1    LIG   0.0000
  13 C13          1.3645     0.2377     0.7633 C.3          1    LIG   0.0000
  14 O14          0.3347     1.2282     0.8095 O.3          1    LIG   0.0000
  15 C15         -0.6135     1.1924    -0.2526 C.3          1    LIG   0.0000
  16 H           -2.2529    -0.2815    -0.3512 H            1    LIG   0.0000
  17 H           -1.2328    -2.5745     1.9340 H            1    LIG   0.0000
  18 H           -2.9757    -7.4512    -2.3468 H            1    LIG   0.0000
  19 H           -1.0260    -2.9181    -2.1799 H            1    LIG   0.0000
  20 H            1.3981    -0.8986    -0.9711 H            1    LIG   0.0000
  21 H            1.4357    -1.8009     0.3894 H            1    LIG   0.0000
  22 H            1.5621    -0.0495     1.7006 H            1    LIG   0.0000
  23 H            2.1804     0.6557     0.3638 H            1    LIG   0.0000
  24 H           -0.1517     1.3578    -1.1240 H            1    LIG   0.0000
  25 H           -1.3113     1.8937    -0.1068 H            1    LIG   0.0000
@<TRIPOS>BOND
   1        1        2 2
   2        2        3 1
   3        3        4 ar
   4        4        5 ar
   5        5        6 ar
   6        6        7 1
   7        7        8 1
   8        8        9 2
   9        9       10 1
  10       10        6 ar
  11       10       11 ar
  12       11        3 ar
  13        2       12 1
  14       12       13 1
  15       13       14 1
  16       14       15 1
  17       15        1 1
  18        1       16 1
  19        4       17 1
  20        8       18 1
  21       11       19 1
  22       12       20 1
  23       12       21 1
  24       13       22 1
  25       13       23 1
  26       15       24 1
  27       15       25 1

@<TRIPOS>MOLECULE

  25   27
SMALL
USER_CHARGES
@<TRIPOS>ATOM
   1 C1          -1.2614    -0.1823    -0.2669 C.2          1    LIG   0.0000
   2 C2          -0.4823    -1.2396    -0.1654 C.2          1    LIG   0.0000
   3 C3          -1.0547    -2.5729    -0.1429 C.ar         1    LIG   0.0000
   4 C4          -1.2222    -3.2143    -1.3644 C.ar         1    LIG   0.0000
   5 N5          -1.7424    -4.4477    -1.3807 N.ar         1    LIG   0.0000
   6 C6          -2.0780    -4.9980    -0.2081 C.ar         1    LIG   0.0000
   7 S7          -2.7369    -6.5544    -0.0498 S.3          1    LIG   0.0000
   8 C8          -2.8813    -6.5271     1.6450 C.2          1    LIG   0.0000
   9 N9          -2.4308    -5.3594     2.0542 N.2          1    LIG   0.0000
  10 C10         -1.9804    -4.4990     1.0772 C.ar         1    LIG   0.0000
  11 C11         -1.4310    -3.2163     1.0378 C.ar         1    LIG   0.0000
  12 C12          1.0206    -1.0049    -0.0513 C.3          1    LIG   0.0000
  13 C13          1.3645     0.2377     0.7633 C.3          1    LIG   0.0000
  14 O14          0.3347     1.2282     0.8095 O.3          1    LIG   0.0000
  15 C15         -0.6135     1.1924    -0.2526 C.3          1    LIG   0.0000
  16 H           -2.2529    -0.2815    -0.3512 H            1    LIG   0.0000
  17 H           -0.9586    -2.7622    -2.2166 H            1    LIG   0.0000
  18 H           -3.2408    -7.2603     2.2222 H            1    LIG   0.0000
  19 H           -1.2998    -2.7317     1.9026 H            1    LIG   0.0000
  20 H            1.3981    -0.8986    -0.9711 H            1    LIG   0.0000
  21 H            1.4357    -1.8009     0.3894 H            1    LIG   0.0000
  22 H            1.5621    -0.0495     1.7006 H            1    LIG   0.0000
  23 H            2.1804     0.6557     0.3638 H            1    LIG   0.0000
  24 H           -0.1517     1.3578    -1.1240 H            1    LIG   0.0000
  25 H           -1.3113     1.8937    -0.1068 H            1    LIG   0.0000
@<TRIPOS>BOND
   1        1        2 2
   2        2        3 1
   3        3        4 ar
   4        4        5 ar
   5        5        6 ar
   6        6        7 1
   7        7        8 1
   8        8        9 2
   9        9       10 1
  10       10        6 ar
  11       10       11 ar
  12       11        3 ar
  13        2       12 1
  14       12       13 1
  15       13       14 1
  16       14       15 1
  17       15        1 1
  18        1       16 1
  19        4       17 1
  20        8       18 1
  21       11       19 1
  22       12       20 1
  23       12       21 1
  24       13       22 1
  25       13       23 1
  26       15       24 1
  27       15       25 1

@<TRIPOS>MOLECULE

  25   27
SMALL
USER_CHARGES
@<TRIPOS>ATOM
   1 C1          -1.2614    -0.1823    -0.2669 C.2          1    LIG   0.0000
   2 C2          -0.4823    -1.2396    -0.1654 C.2          1    LIG   0.0000
   3 C3          -1.0547    -2.5729    -0.1429 C.ar         1    LIG   0.0000
   4 C4          -2.4380    -2.6732    -0.2322 C.ar         1    LIG   0.0000
   5 N5          -3.0000    -3.8882    -0.2201 N.ar         1    LIG   0.0000
   6 C6          -2.1900    -4.9484    -0.1186 C.ar         1    LIG   0.0000
   7 S7          -2.7363    -6.5555    -0.1011 S.3          1    LIG   0.0000
   8 C8          -1.2016    -7.2753     0.0433 C.2          1    LIG   0.0000
   9 N9          -0.3167    -6.3005     0.0708 N.2          1    LIG   0.0000
  10 C10         -0.8132    -5.0186    -0.0189 C.ar         1    LIG   0.0000
  11 C11         -0.2789    -3.7292    -0.0392 C.ar         1    LIG   0.0000
  12 C12          1.0206    -1.0049    -0.0513 C.3          1    LIG   0.0000
  13 C13          1.3645     0.2377     0.7633 C.3          1    LIG   0.0000
  14 O14          0.3347     1.2282     0.8095 O.3          1    LIG   0.0000
  15 C15         -0.6135     1.1924    -0.2526 C.3          1    LIG   0.0000
  16 H           -2.2529    -0.2815    -0.3512 H            1    LIG   0.0000
  17 H           -3.0039    -1.8518    -0.3043 H            1    LIG   0.0000
  18 H           -1.0078    -8.2549     0.0972 H            1    LIG   0.0000
  19 H            0.7140    -3.6280     0.0239 H            1    LIG   0.0000
  20 H            1.3981    -0.8986    -0.9711 H            1    LIG   0.0000
  21 H            1.4357    -1.8009     0.3894 H            1    LIG   0.0000
  22 H            1.5621    -0.0495     1.7006 H            1    LIG   0.0000
  23 H            2.1804     0.6557     0.3638 H            1    LIG   0.0000
  24 H           -0.1517     1.3578    -1.1240 H            1    LIG   0.0000
  25 H           -1.3113     1.8937    -0.1068 H            1    LIG   0.0000
@<TRIPOS>BOND
   1        1        2 2
   2        2        3 1
   3        3        4 ar
   4        4        5 ar
   5        5        6 ar
   6        6        7 1
   7        7        8 1
   8        8        9 2
   9        9       10 1
  10       10        6 ar
  11       10       11 ar
  12       11        3 ar
  13        2       12 1
  14       12       13 1
  15       13       14 1
  16       14       15 1
  17       15        1 1
  18        1       16 1
  19        4       17 1
  20        8       18 1
  21       11       19 1
  22       12       20 1
  23       12       21 1
  24       13       22 1
  25       13       23 1
  26       15       24 1
  27       15       25 1

