@<TRIPOS>MOLECULE
*****
 25 27 0 0 0
SMALL
USER_CHARGES

@<TRIPOS>ATOM
      1 C1         -1.1089   -0.0594    0.0417 C.2     1  LIG1        0.0000
      2 C2         -0.3079   -1.1082   -0.0178 C.2     1  LIG1        0.0000
      3 C3         -0.7710   -2.3563   -0.5952 C.ar    1  LIG1        0.0000
      4 C4         -0.2190   -3.5310   -0.0982 C.ar    1  LIG1        0.0000
      5 N5         -0.6272   -4.7014   -0.6040 N.ar    1  LIG1        0.0000
      6 C6         -1.5511   -4.6738   -1.5715 C.ar    1  LIG1        0.0000
      7 S7         -2.1852   -6.0639   -2.3112 S.3     1  LIG1        0.0000
      8 C8         -3.2378   -5.2504   -3.3715 C.2     1  LIG1        0.0000
      9 N9         -3.0952   -3.9608   -3.1465 N.2     1  LIG1        0.0000
     10 C10        -2.1895   -3.6047   -2.1714 C.ar    1  LIG1        0.0000
     11 C11        -1.7313   -2.4130   -1.6072 C.ar    1  LIG1        0.0000
     12 C12         1.1143   -0.9389    0.5093 C.3     1  LIG1        0.0000
     13 C13         1.6892    0.4682    0.3567 C.3     1  LIG1        0.0000
     14 O14         0.7259    1.4804    0.0642 O.3     1  LIG1        0.0000
     15 C15        -0.5686    1.2421    0.6123 C.3     1  LIG1        0.0000
     16 H          -2.0530   -0.1204   -0.2826 H       1  LIG1        0.0000
     17 H           0.4713   -3.5024    0.6248 H       1  LIG1        0.0000
     18 H          -3.8500   -5.6724   -4.0402 H       1  LIG1        0.0000
     19 H          -2.1116   -1.5526   -1.9465 H       1  LIG1        0.0000
     20 H           1.7076   -1.5731    0.0135 H       1  LIG1        0.0000
     21 H           1.1158   -1.1721    1.4817 H       1  LIG1        0.0000
     22 H           2.1464    0.7118    1.2120 H       1  LIG1        0.0000
     23 H           2.3585    0.4519   -0.3861 H       1  LIG1        0.0000
     24 H          -1.1803    1.9951    0.3699 H       1  LIG1        0.0000
     25 H          -0.5046    1.1718    1.6078 H       1  LIG1        0.0000
@<TRIPOS>BOND
     1     1     2    2
     2     2     3    1
     3     3     4   ar
     4     4     5   ar
     5     5     6   ar
     6     6     7    1
     7     7     8    1
     8     8     9    2
     9     9    10    1
    10    10     6   ar
    11    10    11   ar
    12    11     3   ar
    13     2    12    1
    14    12    13    1
    15    13    14    1
    16    14    15    1
    17    15     1    1
    18     1    16    1
    19     4    17    1
    20     8    18    1
    21    11    19    1
    22    12    20    1
    23    12    21    1
    24    13    22    1
    25    13    23    1
    26    15    24    1
    27    15    25    1
