@<TRIPOS>MOLECULE
*****
 25 27 0 0 0
SMALL
USER_CHARGES

@<TRIPOS>ATOM
      1 C1         -1.2614   -0.1823   -0.2669 C.2     1  LIG1        0.0000
      2 C2         -0.4823   -1.2396   -0.1654 C.2     1  LIG1        0.0000
      3 C3         -1.0547   -2.5729   -0.1429 C.ar    1  LIG1        0.0000
      4 C4         -0.3670   -3.5488    0.5685 C.ar    1  LIG1        0.0000
      5 N5         -0.8693   -4.7890    0.6152 N.ar    1  LIG1        0.0000
      6 C6         -2.0153   -5.0220   -0.0349 C.ar    1  LIG1        0.0000
      7 S7         -2.7924   -6.5309   -0.0672 S.3     1  LIG1        0.0000
      8 C8         -4.1035   -6.0476   -1.0376 C.2     1  LIG1        0.0000
      9 N9         -3.9338   -4.7708   -1.3116 N.2     1  LIG1        0.0000
     10 C10        -2.8113   -4.1736   -0.7814 C.ar    1  LIG1        0.0000
     11 C11        -2.2459   -2.8974   -0.7953 C.ar    1  LIG1        0.0000
     12 C12         1.0206   -1.0049   -0.0513 C.3     1  LIG1        0.0000
     13 C13         1.3645    0.2377    0.7633 C.3     1  LIG1        0.0000
     14 O14         0.3347    1.2282    0.8095 O.3     1  LIG1        0.0000
     15 C15        -0.6135    1.1924   -0.2526 C.3     1  LIG1        0.0000
     16 H          -2.2529   -0.2815   -0.3512 H       1  LIG1        0.0000
     17 H           0.4882   -3.3285    1.0375 H       1  LIG1        0.0000
     18 H          -4.8610   -6.6248   -1.3426 H       1  LIG1        0.0000
     19 H          -2.7199   -2.1759   -1.3001 H       1  LIG1        0.0000
     20 H           1.3981   -0.8986   -0.9711 H       1  LIG1        0.0000
     21 H           1.4357   -1.8009    0.3894 H       1  LIG1        0.0000
     22 H           1.5621   -0.0495    1.7006 H       1  LIG1        0.0000
     23 H           2.1804    0.6557    0.3638 H       1  LIG1        0.0000
     24 H          -0.1517    1.3578   -1.1240 H       1  LIG1        0.0000
     25 H          -1.3113    1.8937   -0.1068 H       1  LIG1        0.0000
@<TRIPOS>BOND
     1     1     2    2
     2     2     3    1
     3     3     4   ar
     4     4     5   ar
     5     5     6   ar
     6     6     7    1
     7     7     8    1
     8     8     9    2
     9     9    10    1
    10    10     6   ar
    11    10    11   ar
    12    11     3   ar
    13     2    12    1
    14    12    13    1
    15    13    14    1
    16    14    15    1
    17    15     1    1
    18     1    16    1
    19     4    17    1
    20     8    18    1
    21    11    19    1
    22    12    20    1
    23    12    21    1
    24    13    22    1
    25    13    23    1
    26    15    24    1
    27    15    25    1
