@<TRIPOS>MOLECULE
*****
 25 27 0 0 0
SMALL
USER_CHARGES

@<TRIPOS>ATOM
      1 C1         -0.0262   -0.7080   -1.2065 C.2     1  LIG1        0.0000
      2 C2         -0.4186   -1.3422   -0.1176 C.2     1  LIG1        0.0000
      3 C3         -0.8104   -2.7375   -0.1916 C.ar    1  LIG1        0.0000
      4 C4         -1.3652   -3.1802   -1.3864 C.ar    1  LIG1        0.0000
      5 N5         -1.7331   -4.4632   -1.4918 N.ar    1  LIG1        0.0000
      6 C6         -1.5467   -5.2542   -0.4289 C.ar    1  LIG1        0.0000
      7 S7         -1.9455   -6.9039   -0.3983 S.3     1  LIG1        0.0000
      8 C8         -1.4406   -7.1909    1.2007 C.2     1  LIG1        0.0000
      9 N9         -0.9822   -6.0507    1.6736 N.2     1  LIG1        0.0000
     10 C10        -1.0185   -4.9724    0.8170 C.ar    1  LIG1        0.0000
     11 C11        -0.6495   -3.6272    0.8724 C.ar    1  LIG1        0.0000
     12 C12        -0.4559   -0.6076    1.2154 C.3     1  LIG1        0.0000
     13 C13         0.4181    0.6311    1.1834 C.3     1  LIG1        0.0000
     14 O14         0.0185    1.3922    0.0520 O.3     1  LIG1        0.0000
     15 C15         0.4156    0.7483   -1.1519 C.3     1  LIG1        0.0000
     16 H          -0.0189   -1.1917   -2.0817 H       1  LIG1        0.0000
     17 H          -1.4875   -2.5514   -2.1542 H       1  LIG1        0.0000
     18 H          -1.4838   -8.0621    1.6898 H       1  LIG1        0.0000
     19 H          -0.2480   -3.2819    1.7207 H       1  LIG1        0.0000
     20 H          -0.1275   -1.2200    1.9346 H       1  LIG1        0.0000
     21 H          -1.3982   -0.3371    1.4125 H       1  LIG1        0.0000
     22 H           0.2885    1.1645    2.0193 H       1  LIG1        0.0000
     23 H           1.3800    0.3707    1.0999 H       1  LIG1        0.0000
     24 H           1.4126    0.7839   -1.2211 H       1  LIG1        0.0000
     25 H           0.0102    1.2357   -1.9252 H       1  LIG1        0.0000
@<TRIPOS>BOND
     1     1     2    2
     2     2     3    1
     3     3     4   ar
     4     4     5   ar
     5     5     6   ar
     6     6     7    1
     7     7     8    1
     8     8     9    2
     9     9    10    1
    10    10     6   ar
    11    10    11   ar
    12    11     3   ar
    13     2    12    1
    14    12    13    1
    15    13    14    1
    16    14    15    1
    17    15     1    1
    18     1    16    1
    19     4    17    1
    20     8    18    1
    21    11    19    1
    22    12    20    1
    23    12    21    1
    24    13    22    1
    25    13    23    1
    26    15    24    1
    27    15    25    1
