@<TRIPOS>MOLECULE
*****
 25 27 0 0 0
SMALL
USER_CHARGES

@<TRIPOS>ATOM
      1 C1          1.0352    2.2303    0.2371 C.2     1  LIG1        0.0000
      2 C2         -0.0243    1.5325   -0.1333 C.2     1  LIG1        0.0000
      3 C3         -1.3286    2.1588   -0.2441 C.ar    1  LIG1        0.0000
      4 C4         -1.4115    3.5136    0.0544 C.ar    1  LIG1        0.0000
      5 N5         -2.5985    4.1253   -0.0426 N.ar    1  LIG1        0.0000
      6 C6         -3.6495    3.3894   -0.4225 C.ar    1  LIG1        0.0000
      7 S7         -5.2188    4.0096   -0.6069 S.3     1  LIG1        0.0000
      8 C8         -5.9455    2.5467   -1.0823 C.2     1  LIG1        0.0000
      9 N9         -5.0001    1.6303   -1.0966 N.2     1  LIG1        0.0000
     10 C10        -3.7348    2.0487   -0.7477 C.ar    1  LIG1        0.0000
     11 C11        -2.4737    1.4611   -0.6335 C.ar    1  LIG1        0.0000
     12 C12         0.1256    0.0546   -0.4456 C.3     1  LIG1        0.0000
     13 C13         1.3893   -0.5113    0.1830 C.3     1  LIG1        0.0000
     14 O14         2.4580    0.3081   -0.2630 O.3     1  LIG1        0.0000
     15 C15         2.3962    1.5740    0.3849 C.3     1  LIG1        0.0000
     16 H           0.9387    3.2081    0.4233 H       1  LIG1        0.0000
     17 H          -0.5985    4.0229    0.3368 H       1  LIG1        0.0000
     18 H          -6.9098    2.4086   -1.3084 H       1  LIG1        0.0000
     19 H          -2.3856    0.4871   -0.8421 H       1  LIG1        0.0000
     20 H           0.1712   -0.0668   -1.4372 H       1  LIG1        0.0000
     21 H          -0.6671   -0.4374   -0.0857 H       1  LIG1        0.0000
     22 H           1.3231   -0.4814    1.1804 H       1  LIG1        0.0000
     23 H           1.5303   -1.4559   -0.1134 H       1  LIG1        0.0000
     24 H           3.0881    2.1746   -0.0158 H       1  LIG1        0.0000
     25 H           2.5881    1.4470    1.3580 H       1  LIG1        0.0000
@<TRIPOS>BOND
     1     1     2    2
     2     2     3    1
     3     3     4   ar
     4     4     5   ar
     5     5     6   ar
     6     6     7    1
     7     7     8    1
     8     8     9    2
     9     9    10    1
    10    10     6   ar
    11    10    11   ar
    12    11     3   ar
    13     2    12    1
    14    12    13    1
    15    13    14    1
    16    14    15    1
    17    15     1    1
    18     1    16    1
    19     4    17    1
    20     8    18    1
    21    11    19    1
    22    12    20    1
    23    12    21    1
    24    13    22    1
    25    13    23    1
    26    15    24    1
    27    15    25    1
