@<TRIPOS>MOLECULE
*****
 25 27 0 0 0
SMALL
USER_CHARGES

@<TRIPOS>ATOM
      1 C1          1.0352    2.2303    0.2371 C.2     1  LIG1        0.0000
      2 C2         -0.0243    1.5325   -0.1333 C.2     1  LIG1        0.0000
      3 C3         -1.3286    2.1588   -0.2441 C.ar    1  LIG1        0.0000
      4 C4         -2.1329    2.1588    0.8893 C.ar    1  LIG1        0.0000
      5 N5         -3.3407    2.7329    0.8246 N.ar    1  LIG1        0.0000
      6 C6         -3.7103    3.2773   -0.3404 C.ar    1  LIG1        0.0000
      7 S7         -5.1992    4.0536   -0.5896 S.3     1  LIG1        0.0000
      8 C8         -4.9345    4.4505   -2.2226 C.2     1  LIG1        0.0000
      9 N9         -3.7400    3.9986   -2.5432 N.2     1  LIG1        0.0000
     10 C10        -3.0387    3.3571   -1.5459 C.ar    1  LIG1        0.0000
     11 C11        -1.7885    2.7485   -1.4233 C.ar    1  LIG1        0.0000
     12 C12         0.1256    0.0546   -0.4456 C.3     1  LIG1        0.0000
     13 C13         1.3893   -0.5113    0.1830 C.3     1  LIG1        0.0000
     14 O14         2.4580    0.3081   -0.2630 O.3     1  LIG1        0.0000
     15 C15         2.3962    1.5740    0.3849 C.3     1  LIG1        0.0000
     16 H           0.9387    3.2081    0.4233 H       1  LIG1        0.0000
     17 H          -1.8150    1.7373    1.7386 H       1  LIG1        0.0000
     18 H          -5.5674    4.9359   -2.8258 H       1  LIG1        0.0000
     19 H          -1.1894    2.7340   -2.2238 H       1  LIG1        0.0000
     20 H           0.1712   -0.0668   -1.4372 H       1  LIG1        0.0000
     21 H          -0.6671   -0.4374   -0.0857 H       1  LIG1        0.0000
     22 H           1.3231   -0.4814    1.1804 H       1  LIG1        0.0000
     23 H           1.5303   -1.4559   -0.1134 H       1  LIG1        0.0000
     24 H           3.0881    2.1746   -0.0158 H       1  LIG1        0.0000
     25 H           2.5881    1.4470    1.3580 H       1  LIG1        0.0000
@<TRIPOS>BOND
     1     1     2    2
     2     2     3    1
     3     3     4   ar
     4     4     5   ar
     5     5     6   ar
     6     6     7    1
     7     7     8    1
     8     8     9    2
     9     9    10    1
    10    10     6   ar
    11    10    11   ar
    12    11     3   ar
    13     2    12    1
    14    12    13    1
    15    13    14    1
    16    14    15    1
    17    15     1    1
    18     1    16    1
    19     4    17    1
    20     8    18    1
    21    11    19    1
    22    12    20    1
    23    12    21    1
    24    13    22    1
    25    13    23    1
    26    15    24    1
    27    15    25    1
