@<TRIPOS>MOLECULE

  45   49
SMALL
USER_CHARGES
@<TRIPOS>ATOM
   1 C1          -4.4145    -3.5270     0.1610 C.3          1    LIG   0.0000
   2 C2          -3.2294    -2.5772     0.1190 C.ar         1    LIG   0.0000
   3 C3          -2.1209    -2.8943    -0.6586 C.ar         1    LIG   0.0000
   4 C4          -1.0321    -2.0297    -0.7026 C.ar         1    LIG   0.0000
   5 C5          -1.0685    -0.8529     0.0382 C.ar         1    LIG   0.0000
   6 C6           0.0636     0.0516    -0.0046 C.2          1    LIG   0.0000
   7 N7           1.3728    -0.3500    -0.0065 N.2          1    LIG   0.0000
   8 C8           2.2538     0.6221    -0.0514 C.2          1    LIG   0.0000
   9 C9           3.7004     0.5214    -0.0689 C.ar         1    LIG   0.0000
  10 C10          4.4704     1.6790    -0.1152 C.ar         1    LIG   0.0000
  11 C11          5.8571     1.5731    -0.1325 C.ar         1    LIG   0.0000
  12 C12          6.4601     0.3193    -0.1031 C.ar         1    LIG   0.0000
  13 C13          5.6823    -0.8331    -0.0566 C.ar         1    LIG   0.0000
  14 C14          4.2945    -0.7360    -0.0398 C.ar         1    LIG   0.0000
  15 S15          1.4115     2.0979    -0.0845 S.3          1    LIG   0.0000
  16 C16         -0.1388     1.4003    -0.0437 C.2          1    LIG   0.0000
  17 C17         -1.4717     2.1318    -0.0499 C.3          1    LIG   0.0000
  18 C18         -2.3255     1.6192    -1.1981 C.2          1    LIG   0.0000
  19 N19         -3.1661     0.6187    -1.1379 N.2          1    LIG   0.0000
  20 C20         -3.6953     0.5260    -2.3862 C.2          1    LIG   0.0000
  21 C21         -4.6836    -0.4430    -2.8179 C.2          1    LIG   0.0000
  22 N22         -5.2069    -0.5302    -4.0728 N.2          1    LIG   0.0000
  23 C23         -6.0606    -1.5287    -4.0611 C.2          1    LIG   0.0000
  24 N24         -6.0640    -2.0542    -2.8024 N.pl3        1    LIG   0.0000
  25 N25         -5.2171    -1.3748    -2.0621 N.2          1    LIG   0.0000
  26 N26         -3.1572     1.4588    -3.1313 N.2          1    LIG   0.0000
  27 O27         -2.3440     2.1054    -2.4146 O.2          1    LIG   0.0000
  28 C28         -2.1730    -0.5283     0.8196 C.ar         1    LIG   0.0000
  29 C29         -3.2571    -1.3984     0.8578 C.ar         1    LIG   0.0000
  30 H           -6.6183    -2.8274    -2.4943 H            1    LIG   0.0000
  31 H           -5.1206    -3.1526     0.7620 H            1    LIG   0.0000
  32 H           -4.7857    -3.6378    -0.7609 H            1    LIG   0.0000
  33 H           -4.1171    -4.4159     0.5096 H            1    LIG   0.0000
  34 H           -2.1065    -3.7437    -1.1861 H            1    LIG   0.0000
  35 H           -0.2323    -2.2516    -1.2604 H            1    LIG   0.0000
  36 H            4.0317     2.5774    -0.1359 H            1    LIG   0.0000
  37 H            6.4210     2.3982    -0.1659 H            1    LIG   0.0000
  38 H            7.4574     0.2463    -0.1156 H            1    LIG   0.0000
  39 H            6.1208    -1.7315    -0.0352 H            1    LIG   0.0000
  40 H            3.7304    -1.5611    -0.0071 H            1    LIG   0.0000
  41 H           -1.9451     1.9693     0.8158 H            1    LIG   0.0000
  42 H           -1.3133     3.1125    -0.1643 H            1    LIG   0.0000
  43 H           -6.6088    -1.8461    -4.8350 H            1    LIG   0.0000
  44 H           -2.1870     0.3208     1.3477 H            1    LIG   0.0000
  45 H           -4.0566    -1.1769     1.4162 H            1    LIG   0.0000
@<TRIPOS>BOND
   1        1        2 1
   2        2        3 ar
   3        3        4 ar
   4        4        5 ar
   5        5        6 1
   6        6        7 1
   7        7        8 2
   8        8        9 1
   9        9       10 ar
  10       10       11 ar
  11       11       12 ar
  12       12       13 ar
  13       13       14 ar
  14       14        9 ar
  15        8       15 1
  16       15       16 1
  17       16        6 2
  18       16       17 1
  19       17       18 1
  20       18       19 2
  21       19       20 1
  22       20       21 1
  23       21       22 1
  24       22       23 2
  25       23       24 1
  26       24       25 1
  27       25       21 2
  28       20       26 2
  29       26       27 1
  30       27       18 1
  31        5       28 ar
  32       28       29 ar
  33       29        2 ar
  34       24       30 1
  35        1       31 1
  36        1       32 1
  37        1       33 1
  38        3       34 1
  39        4       35 1
  40       10       36 1
  41       11       37 1
  42       12       38 1
  43       13       39 1
  44       14       40 1
  45       17       41 1
  46       17       42 1
  47       23       43 1
  48       28       44 1
  49       29       45 1

@<TRIPOS>MOLECULE

  45   49
SMALL
USER_CHARGES
@<TRIPOS>ATOM
   1 C1          -4.4145    -3.5270     0.1610 C.3          1    LIG   0.0000
   2 C2          -3.2294    -2.5772     0.1190 C.ar         1    LIG   0.0000
   3 C3          -2.1209    -2.8943    -0.6586 C.ar         1    LIG   0.0000
   4 C4          -1.0321    -2.0297    -0.7026 C.ar         1    LIG   0.0000
   5 C5          -1.0685    -0.8529     0.0382 C.ar         1    LIG   0.0000
   6 C6           0.0636     0.0516    -0.0046 C.2          1    LIG   0.0000
   7 N7           1.3728    -0.3500    -0.0065 N.2          1    LIG   0.0000
   8 C8           2.2538     0.6221    -0.0514 C.2          1    LIG   0.0000
   9 C9           3.7004     0.5214    -0.0689 C.ar         1    LIG   0.0000
  10 C10          4.4704     1.6790    -0.1152 C.ar         1    LIG   0.0000
  11 C11          5.8571     1.5731    -0.1325 C.ar         1    LIG   0.0000
  12 C12          6.4601     0.3193    -0.1031 C.ar         1    LIG   0.0000
  13 C13          5.6823    -0.8331    -0.0566 C.ar         1    LIG   0.0000
  14 C14          4.2945    -0.7360    -0.0398 C.ar         1    LIG   0.0000
  15 S15          1.4115     2.0979    -0.0845 S.3          1    LIG   0.0000
  16 C16         -0.1388     1.4003    -0.0437 C.2          1    LIG   0.0000
  17 C17         -1.4717     2.1318    -0.0499 C.3          1    LIG   0.0000
  18 C18         -2.3255     1.6192    -1.1981 C.2          1    LIG   0.0000
  19 N19         -2.3433     2.1044    -2.4129 N.2          1    LIG   0.0000
  20 C20         -3.2427     1.3394    -3.0858 C.2          1    LIG   0.0000
  21 C21         -3.6117     1.4936    -4.4795 C.2          1    LIG   0.0000
  22 N22         -4.5167     0.7233    -5.1455 N.2          1    LIG   0.0000
  23 C23         -4.5702     1.1772    -6.3773 C.2          1    LIG   0.0000
  24 N24         -3.6997     2.2233    -6.4698 N.pl3        1    LIG   0.0000
  25 N25         -3.1264     2.3965    -5.3001 N.2          1    LIG   0.0000
  26 N26         -3.7203     0.4430    -2.2592 N.2          1    LIG   0.0000
  27 O27         -3.1669     0.6167    -1.1382 O.2          1    LIG   0.0000
  28 C28         -2.1730    -0.5283     0.8196 C.ar         1    LIG   0.0000
  29 C29         -3.2571    -1.3984     0.8578 C.ar         1    LIG   0.0000
  30 H           -3.5267     2.7675    -7.2907 H            1    LIG   0.0000
  31 H           -5.1206    -3.1526     0.7620 H            1    LIG   0.0000
  32 H           -4.7857    -3.6378    -0.7609 H            1    LIG   0.0000
  33 H           -4.1171    -4.4159     0.5096 H            1    LIG   0.0000
  34 H           -2.1065    -3.7437    -1.1861 H            1    LIG   0.0000
  35 H           -0.2323    -2.2516    -1.2604 H            1    LIG   0.0000
  36 H            4.0317     2.5774    -0.1359 H            1    LIG   0.0000
  37 H            6.4210     2.3982    -0.1659 H            1    LIG   0.0000
  38 H            7.4574     0.2463    -0.1156 H            1    LIG   0.0000
  39 H            6.1208    -1.7315    -0.0352 H            1    LIG   0.0000
  40 H            3.7304    -1.5611    -0.0071 H            1    LIG   0.0000
  41 H           -1.9451     1.9693     0.8158 H            1    LIG   0.0000
  42 H           -1.3133     3.1125    -0.1643 H            1    LIG   0.0000
  43 H           -5.1451     0.8204    -7.1136 H            1    LIG   0.0000
  44 H           -2.1870     0.3208     1.3477 H            1    LIG   0.0000
  45 H           -4.0566    -1.1769     1.4162 H            1    LIG   0.0000
@<TRIPOS>BOND
   1        1        2 1
   2        2        3 ar
   3        3        4 ar
   4        4        5 ar
   5        5        6 1
   6        6        7 1
   7        7        8 2
   8        8        9 1
   9        9       10 ar
  10       10       11 ar
  11       11       12 ar
  12       12       13 ar
  13       13       14 ar
  14       14        9 ar
  15        8       15 1
  16       15       16 1
  17       16        6 2
  18       16       17 1
  19       17       18 1
  20       18       19 2
  21       19       20 1
  22       20       21 1
  23       21       22 1
  24       22       23 2
  25       23       24 1
  26       24       25 1
  27       25       21 2
  28       20       26 2
  29       26       27 1
  30       27       18 1
  31        5       28 ar
  32       28       29 ar
  33       29        2 ar
  34       24       30 1
  35        1       31 1
  36        1       32 1
  37        1       33 1
  38        3       34 1
  39        4       35 1
  40       10       36 1
  41       11       37 1
  42       12       38 1
  43       13       39 1
  44       14       40 1
  45       17       41 1
  46       17       42 1
  47       23       43 1
  48       28       44 1
  49       29       45 1

@<TRIPOS>MOLECULE

  45   49
SMALL
USER_CHARGES
@<TRIPOS>ATOM
   1 C1          -4.4145    -3.5270     0.1610 C.3          1    LIG   0.0000
   2 C2          -3.2294    -2.5772     0.1190 C.ar         1    LIG   0.0000
   3 C3          -2.1209    -2.8943    -0.6586 C.ar         1    LIG   0.0000
   4 C4          -1.0321    -2.0297    -0.7026 C.ar         1    LIG   0.0000
   5 C5          -1.0685    -0.8529     0.0382 C.ar         1    LIG   0.0000
   6 C6           0.0636     0.0516    -0.0046 C.2          1    LIG   0.0000
   7 N7           1.3728    -0.3500    -0.0065 N.2          1    LIG   0.0000
   8 C8           2.2538     0.6221    -0.0514 C.2          1    LIG   0.0000
   9 C9           3.7004     0.5214    -0.0689 C.ar         1    LIG   0.0000
  10 C10          4.4704     1.6790    -0.1152 C.ar         1    LIG   0.0000
  11 C11          5.8571     1.5731    -0.1325 C.ar         1    LIG   0.0000
  12 C12          6.4601     0.3193    -0.1031 C.ar         1    LIG   0.0000
  13 C13          5.6823    -0.8331    -0.0566 C.ar         1    LIG   0.0000
  14 C14          4.2945    -0.7360    -0.0398 C.ar         1    LIG   0.0000
  15 S15          1.4115     2.0979    -0.0845 S.3          1    LIG   0.0000
  16 C16         -0.1388     1.4003    -0.0437 C.2          1    LIG   0.0000
  17 C17         -1.4717     2.1318    -0.0499 C.3          1    LIG   0.0000
  18 C18         -1.7206     2.7430     1.3191 C.2          1    LIG   0.0000
  19 N19         -1.3565     3.9408     1.6988 N.2          1    LIG   0.0000
  20 C20         -1.7865     4.0504     2.9833 C.2          1    LIG   0.0000
  21 C21         -1.6139     5.2081     3.8390 C.2          1    LIG   0.0000
  22 N22         -2.0463     5.3081     5.1270 N.2          1    LIG   0.0000
  23 C23         -1.6993     6.5013     5.5538 C.2          1    LIG   0.0000
  24 N24         -1.0562     7.1346     4.5311 N.pl3        1    LIG   0.0000
  25 N25         -1.0173     6.3263     3.4957 N.2          1    LIG   0.0000
  26 N26         -2.3795     2.9310     3.3155 N.2          1    LIG   0.0000
  27 O27         -2.3365     2.1595     2.3175 O.2          1    LIG   0.0000
  28 C28         -2.1730    -0.5283     0.8196 C.ar         1    LIG   0.0000
  29 C29         -3.2571    -1.3984     0.8578 C.ar         1    LIG   0.0000
  30 H           -0.6775     8.0595     4.5638 H            1    LIG   0.0000
  31 H           -5.1206    -3.1526     0.7620 H            1    LIG   0.0000
  32 H           -4.7857    -3.6378    -0.7609 H            1    LIG   0.0000
  33 H           -4.1171    -4.4159     0.5096 H            1    LIG   0.0000
  34 H           -2.1065    -3.7437    -1.1861 H            1    LIG   0.0000
  35 H           -0.2323    -2.2516    -1.2604 H            1    LIG   0.0000
  36 H            4.0317     2.5774    -0.1359 H            1    LIG   0.0000
  37 H            6.4210     2.3982    -0.1659 H            1    LIG   0.0000
  38 H            7.4574     0.2463    -0.1156 H            1    LIG   0.0000
  39 H            6.1208    -1.7315    -0.0352 H            1    LIG   0.0000
  40 H            3.7304    -1.5611    -0.0071 H            1    LIG   0.0000
  41 H           -1.4515     2.8557    -0.7395 H            1    LIG   0.0000
  42 H           -2.2049     1.4867    -0.2652 H            1    LIG   0.0000
  43 H           -1.8750     6.8771     6.4637 H            1    LIG   0.0000
  44 H           -2.1870     0.3208     1.3477 H            1    LIG   0.0000
  45 H           -4.0566    -1.1769     1.4162 H            1    LIG   0.0000
@<TRIPOS>BOND
   1        1        2 1
   2        2        3 ar
   3        3        4 ar
   4        4        5 ar
   5        5        6 1
   6        6        7 1
   7        7        8 2
   8        8        9 1
   9        9       10 ar
  10       10       11 ar
  11       11       12 ar
  12       12       13 ar
  13       13       14 ar
  14       14        9 ar
  15        8       15 1
  16       15       16 1
  17       16        6 2
  18       16       17 1
  19       17       18 1
  20       18       19 2
  21       19       20 1
  22       20       21 1
  23       21       22 1
  24       22       23 2
  25       23       24 1
  26       24       25 1
  27       25       21 2
  28       20       26 2
  29       26       27 1
  30       27       18 1
  31        5       28 ar
  32       28       29 ar
  33       29        2 ar
  34       24       30 1
  35        1       31 1
  36        1       32 1
  37        1       33 1
  38        3       34 1
  39        4       35 1
  40       10       36 1
  41       11       37 1
  42       12       38 1
  43       13       39 1
  44       14       40 1
  45       17       41 1
  46       17       42 1
  47       23       43 1
  48       28       44 1
  49       29       45 1

@<TRIPOS>MOLECULE

  45   49
SMALL
USER_CHARGES
@<TRIPOS>ATOM
   1 C1          -4.4145    -3.5270     0.1610 C.3          1    LIG   0.0000
   2 C2          -3.2294    -2.5772     0.1190 C.ar         1    LIG   0.0000
   3 C3          -2.1209    -2.8943    -0.6586 C.ar         1    LIG   0.0000
   4 C4          -1.0321    -2.0297    -0.7026 C.ar         1    LIG   0.0000
   5 C5          -1.0685    -0.8529     0.0382 C.ar         1    LIG   0.0000
   6 C6           0.0636     0.0516    -0.0046 C.2          1    LIG   0.0000
   7 N7           1.3728    -0.3500    -0.0065 N.2          1    LIG   0.0000
   8 C8           2.2538     0.6221    -0.0514 C.2          1    LIG   0.0000
   9 C9           3.7004     0.5214    -0.0689 C.ar         1    LIG   0.0000
  10 C10          4.4704     1.6790    -0.1152 C.ar         1    LIG   0.0000
  11 C11          5.8571     1.5731    -0.1325 C.ar         1    LIG   0.0000
  12 C12          6.4601     0.3193    -0.1031 C.ar         1    LIG   0.0000
  13 C13          5.6823    -0.8331    -0.0566 C.ar         1    LIG   0.0000
  14 C14          4.2945    -0.7360    -0.0398 C.ar         1    LIG   0.0000
  15 S15          1.4115     2.0979    -0.0845 S.3          1    LIG   0.0000
  16 C16         -0.1388     1.4003    -0.0437 C.2          1    LIG   0.0000
  17 C17         -1.4717     2.1318    -0.0499 C.3          1    LIG   0.0000
  18 C18         -1.7206     2.7430     1.3191 C.2          1    LIG   0.0000
  19 N19         -2.3349     2.1599     2.3161 N.2          1    LIG   0.0000
  20 C20         -2.3213     3.0732     3.3224 C.2          1    LIG   0.0000
  21 C21         -2.8896     2.8873     4.6433 C.2          1    LIG   0.0000
  22 N22         -2.8735     3.8099     5.6456 N.2          1    LIG   0.0000
  23 C23         -3.4849     3.2663     6.6737 C.2          1    LIG   0.0000
  24 N24         -3.8753     2.0121     6.3058 N.pl3        1    LIG   0.0000
  25 N25         -3.5001     1.8036     5.0638 N.2          1    LIG   0.0000
  26 N26         -1.7107     4.1492     2.8931 N.2          1    LIG   0.0000
  27 O27         -1.3554     3.9423     1.6998 O.2          1    LIG   0.0000
  28 C28         -2.1730    -0.5283     0.8196 C.ar         1    LIG   0.0000
  29 C29         -3.2571    -1.3984     0.8578 C.ar         1    LIG   0.0000
  30 H           -4.3652     1.3602     6.8847 H            1    LIG   0.0000
  31 H           -5.1206    -3.1526     0.7620 H            1    LIG   0.0000
  32 H           -4.7857    -3.6378    -0.7609 H            1    LIG   0.0000
  33 H           -4.1171    -4.4159     0.5096 H            1    LIG   0.0000
  34 H           -2.1065    -3.7437    -1.1861 H            1    LIG   0.0000
  35 H           -0.2323    -2.2516    -1.2604 H            1    LIG   0.0000
  36 H            4.0317     2.5774    -0.1359 H            1    LIG   0.0000
  37 H            6.4210     2.3982    -0.1659 H            1    LIG   0.0000
  38 H            7.4574     0.2463    -0.1156 H            1    LIG   0.0000
  39 H            6.1208    -1.7315    -0.0352 H            1    LIG   0.0000
  40 H            3.7304    -1.5611    -0.0071 H            1    LIG   0.0000
  41 H           -1.4515     2.8557    -0.7395 H            1    LIG   0.0000
  42 H           -2.2049     1.4867    -0.2652 H            1    LIG   0.0000
  43 H           -3.6366     3.6944     7.5646 H            1    LIG   0.0000
  44 H           -2.1870     0.3208     1.3477 H            1    LIG   0.0000
  45 H           -4.0566    -1.1769     1.4162 H            1    LIG   0.0000
@<TRIPOS>BOND
   1        1        2 1
   2        2        3 ar
   3        3        4 ar
   4        4        5 ar
   5        5        6 1
   6        6        7 1
   7        7        8 2
   8        8        9 1
   9        9       10 ar
  10       10       11 ar
  11       11       12 ar
  12       12       13 ar
  13       13       14 ar
  14       14        9 ar
  15        8       15 1
  16       15       16 1
  17       16        6 2
  18       16       17 1
  19       17       18 1
  20       18       19 2
  21       19       20 1
  22       20       21 1
  23       21       22 1
  24       22       23 2
  25       23       24 1
  26       24       25 1
  27       25       21 2
  28       20       26 2
  29       26       27 1
  30       27       18 1
  31        5       28 ar
  32       28       29 ar
  33       29        2 ar
  34       24       30 1
  35        1       31 1
  36        1       32 1
  37        1       33 1
  38        3       34 1
  39        4       35 1
  40       10       36 1
  41       11       37 1
  42       12       38 1
  43       13       39 1
  44       14       40 1
  45       17       41 1
  46       17       42 1
  47       23       43 1
  48       28       44 1
  49       29       45 1

@<TRIPOS>MOLECULE

  45   49
SMALL
USER_CHARGES
@<TRIPOS>ATOM
   1 C1          -4.4145    -3.5270     0.1610 C.3          1    LIG   0.0000
   2 C2          -3.2294    -2.5772     0.1190 C.ar         1    LIG   0.0000
   3 C3          -2.1209    -2.8943    -0.6586 C.ar         1    LIG   0.0000
   4 C4          -1.0321    -2.0297    -0.7026 C.ar         1    LIG   0.0000
   5 C5          -1.0685    -0.8529     0.0382 C.ar         1    LIG   0.0000
   6 C6           0.0636     0.0516    -0.0046 C.2          1    LIG   0.0000
   7 N7           1.3728    -0.3500    -0.0065 N.2          1    LIG   0.0000
   8 C8           2.2538     0.6221    -0.0514 C.2          1    LIG   0.0000
   9 C9           3.7004     0.5214    -0.0689 C.ar         1    LIG   0.0000
  10 C10          4.4704     1.6790    -0.1152 C.ar         1    LIG   0.0000
  11 C11          5.8571     1.5731    -0.1325 C.ar         1    LIG   0.0000
  12 C12          6.4601     0.3193    -0.1031 C.ar         1    LIG   0.0000
  13 C13          5.6823    -0.8331    -0.0566 C.ar         1    LIG   0.0000
  14 C14          4.2945    -0.7360    -0.0398 C.ar         1    LIG   0.0000
  15 S15          1.4115     2.0979    -0.0845 S.3          1    LIG   0.0000
  16 C16         -0.1388     1.4003    -0.0437 C.2          1    LIG   0.0000
  17 C17         -1.4717     2.1318    -0.0499 C.3          1    LIG   0.0000
  18 C18         -1.2268     3.6309    -0.0991 C.2          1    LIG   0.0000
  19 N19         -1.1173     4.3521    -1.1851 N.2          1    LIG   0.0000
  20 C20         -0.9072     5.6212    -0.7469 C.2          1    LIG   0.0000
  21 C21         -0.7215     6.7881    -1.5872 C.2          1    LIG   0.0000
  22 N22         -0.5087     8.0569    -1.1389 N.2          1    LIG   0.0000
  23 C23         -0.3901     8.8213    -2.2009 C.2          1    LIG   0.0000
  24 N24         -0.5306     8.0257    -3.2999 N.pl3        1    LIG   0.0000
  25 N25         -0.7328     6.7903    -2.9002 N.2          1    LIG   0.0000
  26 N26         -0.8977     5.6080     0.5625 N.2          1    LIG   0.0000
  27 O27         -1.0904     4.4187     0.9388 O.2          1    LIG   0.0000
  28 C28         -2.1730    -0.5283     0.8196 C.ar         1    LIG   0.0000
  29 C29         -3.2571    -1.3984     0.8578 C.ar         1    LIG   0.0000
  30 H           -0.4870     8.3315    -4.2510 H            1    LIG   0.0000
  31 H           -5.1206    -3.1526     0.7620 H            1    LIG   0.0000
  32 H           -4.7857    -3.6378    -0.7609 H            1    LIG   0.0000
  33 H           -4.1171    -4.4159     0.5096 H            1    LIG   0.0000
  34 H           -2.1065    -3.7437    -1.1861 H            1    LIG   0.0000
  35 H           -0.2323    -2.2516    -1.2604 H            1    LIG   0.0000
  36 H            4.0317     2.5774    -0.1359 H            1    LIG   0.0000
  37 H            6.4210     2.3982    -0.1659 H            1    LIG   0.0000
  38 H            7.4574     0.2463    -0.1156 H            1    LIG   0.0000
  39 H            6.1208    -1.7315    -0.0352 H            1    LIG   0.0000
  40 H            3.7304    -1.5611    -0.0071 H            1    LIG   0.0000
  41 H           -2.0007     1.8539    -0.8518 H            1    LIG   0.0000
  42 H           -1.9807     1.9042     0.7803 H            1    LIG   0.0000
  43 H           -0.2264     9.8078    -2.2031 H            1    LIG   0.0000
  44 H           -2.1870     0.3208     1.3477 H            1    LIG   0.0000
  45 H           -4.0566    -1.1769     1.4162 H            1    LIG   0.0000
@<TRIPOS>BOND
   1        1        2 1
   2        2        3 ar
   3        3        4 ar
   4        4        5 ar
   5        5        6 1
   6        6        7 1
   7        7        8 2
   8        8        9 1
   9        9       10 ar
  10       10       11 ar
  11       11       12 ar
  12       12       13 ar
  13       13       14 ar
  14       14        9 ar
  15        8       15 1
  16       15       16 1
  17       16        6 2
  18       16       17 1
  19       17       18 1
  20       18       19 2
  21       19       20 1
  22       20       21 1
  23       21       22 1
  24       22       23 2
  25       23       24 1
  26       24       25 1
  27       25       21 2
  28       20       26 2
  29       26       27 1
  30       27       18 1
  31        5       28 ar
  32       28       29 ar
  33       29        2 ar
  34       24       30 1
  35        1       31 1
  36        1       32 1
  37        1       33 1
  38        3       34 1
  39        4       35 1
  40       10       36 1
  41       11       37 1
  42       12       38 1
  43       13       39 1
  44       14       40 1
  45       17       41 1
  46       17       42 1
  47       23       43 1
  48       28       44 1
  49       29       45 1

@<TRIPOS>MOLECULE

  45   49
SMALL
USER_CHARGES
@<TRIPOS>ATOM
   1 C1          -4.4145    -3.5270     0.1610 C.3          1    LIG   0.0000
   2 C2          -3.2294    -2.5772     0.1190 C.ar         1    LIG   0.0000
   3 C3          -2.1209    -2.8943    -0.6586 C.ar         1    LIG   0.0000
   4 C4          -1.0321    -2.0297    -0.7026 C.ar         1    LIG   0.0000
   5 C5          -1.0685    -0.8529     0.0382 C.ar         1    LIG   0.0000
   6 C6           0.0636     0.0516    -0.0046 C.2          1    LIG   0.0000
   7 N7           1.3728    -0.3500    -0.0065 N.2          1    LIG   0.0000
   8 C8           2.2538     0.6221    -0.0514 C.2          1    LIG   0.0000
   9 C9           3.7004     0.5214    -0.0689 C.ar         1    LIG   0.0000
  10 C10          4.4704     1.6790    -0.1152 C.ar         1    LIG   0.0000
  11 C11          5.8571     1.5731    -0.1325 C.ar         1    LIG   0.0000
  12 C12          6.4601     0.3193    -0.1031 C.ar         1    LIG   0.0000
  13 C13          5.6823    -0.8331    -0.0566 C.ar         1    LIG   0.0000
  14 C14          4.2945    -0.7360    -0.0398 C.ar         1    LIG   0.0000
  15 S15          1.4115     2.0979    -0.0845 S.3          1    LIG   0.0000
  16 C16         -0.1388     1.4003    -0.0437 C.2          1    LIG   0.0000
  17 C17         -1.4717     2.1318    -0.0499 C.3          1    LIG   0.0000
  18 C18         -1.2268     3.6309    -0.0991 C.2          1    LIG   0.0000
  19 N19         -1.0899     4.4172     0.9374 N.2          1    LIG   0.0000
  20 C20         -0.8901     5.6566     0.4169 C.2          1    LIG   0.0000
  21 C21         -0.6863     6.8731     1.1790 C.2          1    LIG   0.0000
  22 N22         -0.4893     8.1124     0.6484 N.2          1    LIG   0.0000
  23 C23         -0.3476     8.9410     1.6581 C.2          1    LIG   0.0000
  24 N24         -0.4559     8.2139     2.8071 N.pl3        1    LIG   0.0000
  25 N25         -0.6612     6.9554     2.4892 N.2          1    LIG   0.0000
  26 N26         -0.9170     5.5635    -0.8891 N.2          1    LIG   0.0000
  27 O27         -1.1164     4.3532    -1.1866 O.2          1    LIG   0.0000
  28 C28         -2.1730    -0.5283     0.8196 C.ar         1    LIG   0.0000
  29 C29         -3.2571    -1.3984     0.8578 C.ar         1    LIG   0.0000
  30 H           -0.3901     8.5778     3.7362 H            1    LIG   0.0000
  31 H           -5.1206    -3.1526     0.7620 H            1    LIG   0.0000
  32 H           -4.7857    -3.6378    -0.7609 H            1    LIG   0.0000
  33 H           -4.1171    -4.4159     0.5096 H            1    LIG   0.0000
  34 H           -2.1065    -3.7437    -1.1861 H            1    LIG   0.0000
  35 H           -0.2323    -2.2516    -1.2604 H            1    LIG   0.0000
  36 H            4.0317     2.5774    -0.1359 H            1    LIG   0.0000
  37 H            6.4210     2.3982    -0.1659 H            1    LIG   0.0000
  38 H            7.4574     0.2463    -0.1156 H            1    LIG   0.0000
  39 H            6.1208    -1.7315    -0.0352 H            1    LIG   0.0000
  40 H            3.7304    -1.5611    -0.0071 H            1    LIG   0.0000
  41 H           -2.0007     1.8539    -0.8518 H            1    LIG   0.0000
  42 H           -1.9807     1.9042     0.7803 H            1    LIG   0.0000
  43 H           -0.1891     9.9264     1.5955 H            1    LIG   0.0000
  44 H           -2.1870     0.3208     1.3477 H            1    LIG   0.0000
  45 H           -4.0566    -1.1769     1.4162 H            1    LIG   0.0000
@<TRIPOS>BOND
   1        1        2 1
   2        2        3 ar
   3        3        4 ar
   4        4        5 ar
   5        5        6 1
   6        6        7 1
   7        7        8 2
   8        8        9 1
   9        9       10 ar
  10       10       11 ar
  11       11       12 ar
  12       12       13 ar
  13       13       14 ar
  14       14        9 ar
  15        8       15 1
  16       15       16 1
  17       16        6 2
  18       16       17 1
  19       17       18 1
  20       18       19 2
  21       19       20 1
  22       20       21 1
  23       21       22 1
  24       22       23 2
  25       23       24 1
  26       24       25 1
  27       25       21 2
  28       20       26 2
  29       26       27 1
  30       27       18 1
  31        5       28 ar
  32       28       29 ar
  33       29        2 ar
  34       24       30 1
  35        1       31 1
  36        1       32 1
  37        1       33 1
  38        3       34 1
  39        4       35 1
  40       10       36 1
  41       11       37 1
  42       12       38 1
  43       13       39 1
  44       14       40 1
  45       17       41 1
  46       17       42 1
  47       23       43 1
  48       28       44 1
  49       29       45 1

@<TRIPOS>MOLECULE

  45   49
SMALL
USER_CHARGES
@<TRIPOS>ATOM
   1 C1          -4.4125    -3.5293     0.1649 C.3          1    LIG   0.0000
   2 C2          -3.2281    -2.5789     0.1181 C.ar         1    LIG   0.0000
   3 C3          -2.1027    -2.8436     0.8912 C.ar         1    LIG   0.0000
   4 C4          -1.0141    -1.9785     0.8537 C.ar         1    LIG   0.0000
   5 C5          -1.0685    -0.8529     0.0382 C.ar         1    LIG   0.0000
   6 C6           0.0636     0.0516    -0.0046 C.2          1    LIG   0.0000
   7 N7           1.3728    -0.3500    -0.0065 N.2          1    LIG   0.0000
   8 C8           2.2538     0.6221    -0.0514 C.2          1    LIG   0.0000
   9 C9           3.7004     0.5214    -0.0689 C.ar         1    LIG   0.0000
  10 C10          4.4704     1.6790    -0.1152 C.ar         1    LIG   0.0000
  11 C11          5.8571     1.5731    -0.1325 C.ar         1    LIG   0.0000
  12 C12          6.4601     0.3193    -0.1031 C.ar         1    LIG   0.0000
  13 C13          5.6823    -0.8331    -0.0566 C.ar         1    LIG   0.0000
  14 C14          4.2945    -0.7360    -0.0398 C.ar         1    LIG   0.0000
  15 S15          1.4115     2.0979    -0.0845 S.3          1    LIG   0.0000
  16 C16         -0.1388     1.4003    -0.0437 C.2          1    LIG   0.0000
  17 C17         -1.4717     2.1318    -0.0499 C.3          1    LIG   0.0000
  18 C18         -1.7544     2.6578    -1.4475 C.2          1    LIG   0.0000
  19 N19         -2.3938     2.0155    -2.3909 N.2          1    LIG   0.0000
  20 C20         -2.4066     2.8655    -3.4512 C.2          1    LIG   0.0000
  21 C21         -3.0056     2.5985    -4.7443 C.2          1    LIG   0.0000
  22 N22         -3.0114     3.4561    -5.8028 N.2          1    LIG   0.0000
  23 C23         -3.6453     2.8498    -6.7810 C.2          1    LIG   0.0000
  24 N24         -4.0298     1.6229    -6.3256 N.pl3        1    LIG   0.0000
  25 N25         -3.6293     1.4931    -5.0807 N.2          1    LIG   0.0000
  26 N26         -1.7828     3.9637    -3.1054 N.2          1    LIG   0.0000
  27 O27         -1.3995     3.8311    -1.9102 O.2          1    LIG   0.0000
  28 C28         -2.1907    -0.5798    -0.7377 C.ar         1    LIG   0.0000
  29 C29         -3.2745    -1.4500    -0.6941 C.ar         1    LIG   0.0000
  30 H           -4.5326     0.9366    -6.8513 H            1    LIG   0.0000
  31 H           -5.1318    -3.1956    -0.4444 H            1    LIG   0.0000
  32 H           -4.1215    -4.4394    -0.1300 H            1    LIG   0.0000
  33 H           -4.7639    -3.5783     1.0999 H            1    LIG   0.0000
  34 H           -2.0762    -3.6558     1.4740 H            1    LIG   0.0000
  35 H           -0.2017    -2.1636     1.4066 H            1    LIG   0.0000
  36 H            4.0317     2.5774    -0.1359 H            1    LIG   0.0000
  37 H            6.4210     2.3982    -0.1659 H            1    LIG   0.0000
  38 H            7.4574     0.2463    -0.1156 H            1    LIG   0.0000
  39 H            6.1208    -1.7315    -0.0352 H            1    LIG   0.0000
  40 H            3.7304    -1.5611    -0.0071 H            1    LIG   0.0000
  41 H           -2.1989     1.5017     0.2225 H            1    LIG   0.0000
  42 H           -1.4352     2.8967     0.5931 H            1    LIG   0.0000
  43 H           -3.8152     3.2207    -7.6940 H            1    LIG   0.0000
  44 H           -2.2175     0.2327    -1.3200 H            1    LIG   0.0000
  45 H           -4.0873    -1.2645    -1.2464 H            1    LIG   0.0000
@<TRIPOS>BOND
   1        1        2 1
   2        2        3 ar
   3        3        4 ar
   4        4        5 ar
   5        5        6 1
   6        6        7 1
   7        7        8 2
   8        8        9 1
   9        9       10 ar
  10       10       11 ar
  11       11       12 ar
  12       12       13 ar
  13       13       14 ar
  14       14        9 ar
  15        8       15 1
  16       15       16 1
  17       16        6 2
  18       16       17 1
  19       17       18 1
  20       18       19 2
  21       19       20 1
  22       20       21 1
  23       21       22 1
  24       22       23 2
  25       23       24 1
  26       24       25 1
  27       25       21 2
  28       20       26 2
  29       26       27 1
  30       27       18 1
  31        5       28 ar
  32       28       29 ar
  33       29        2 ar
  34       24       30 1
  35        1       31 1
  36        1       32 1
  37        1       33 1
  38        3       34 1
  39        4       35 1
  40       10       36 1
  41       11       37 1
  42       12       38 1
  43       13       39 1
  44       14       40 1
  45       17       41 1
  46       17       42 1
  47       23       43 1
  48       28       44 1
  49       29       45 1

@<TRIPOS>MOLECULE

  45   49
SMALL
USER_CHARGES
@<TRIPOS>ATOM
   1 C1          -4.4125    -3.5293     0.1649 C.3          1    LIG   0.0000
   2 C2          -3.2281    -2.5789     0.1181 C.ar         1    LIG   0.0000
   3 C3          -2.1027    -2.8436     0.8912 C.ar         1    LIG   0.0000
   4 C4          -1.0141    -1.9785     0.8537 C.ar         1    LIG   0.0000
   5 C5          -1.0685    -0.8529     0.0382 C.ar         1    LIG   0.0000
   6 C6           0.0636     0.0516    -0.0046 C.2          1    LIG   0.0000
   7 N7           1.3728    -0.3500    -0.0065 N.2          1    LIG   0.0000
   8 C8           2.2538     0.6221    -0.0514 C.2          1    LIG   0.0000
   9 C9           3.7004     0.5214    -0.0689 C.ar         1    LIG   0.0000
  10 C10          4.4704     1.6790    -0.1152 C.ar         1    LIG   0.0000
  11 C11          5.8571     1.5731    -0.1325 C.ar         1    LIG   0.0000
  12 C12          6.4601     0.3193    -0.1031 C.ar         1    LIG   0.0000
  13 C13          5.6823    -0.8331    -0.0566 C.ar         1    LIG   0.0000
  14 C14          4.2945    -0.7360    -0.0398 C.ar         1    LIG   0.0000
  15 S15          1.4115     2.0979    -0.0845 S.3          1    LIG   0.0000
  16 C16         -0.1388     1.4003    -0.0437 C.2          1    LIG   0.0000
  17 C17         -1.4717     2.1318    -0.0499 C.3          1    LIG   0.0000
  18 C18         -1.7544     2.6578    -1.4475 C.2          1    LIG   0.0000
  19 N19         -1.3993     3.8290    -1.9095 N.2          1    LIG   0.0000
  20 C20         -1.8596     3.8592    -3.1879 C.2          1    LIG   0.0000
  21 C21         -1.7100     4.9624    -4.1167 C.2          1    LIG   0.0000
  22 N22         -2.1772     4.9848    -5.3962 N.2          1    LIG   0.0000
  23 C23         -1.8437     6.1501    -5.9033 C.2          1    LIG   0.0000
  24 N24         -1.1721     6.8428    -4.9391 N.pl3        1    LIG   0.0000
  25 N25         -1.1023     6.0974    -3.8590 N.2          1    LIG   0.0000
  26 N26         -2.4634     2.7236    -3.4345 N.2          1    LIG   0.0000
  27 O27         -2.3941     2.0143    -2.3927 O.2          1    LIG   0.0000
  28 C28         -2.1907    -0.5798    -0.7377 C.ar         1    LIG   0.0000
  29 C29         -3.2745    -1.4500    -0.6941 C.ar         1    LIG   0.0000
  30 H           -0.7956     7.7639    -5.0376 H            1    LIG   0.0000
  31 H           -5.1318    -3.1956    -0.4444 H            1    LIG   0.0000
  32 H           -4.1215    -4.4394    -0.1300 H            1    LIG   0.0000
  33 H           -4.7639    -3.5783     1.0999 H            1    LIG   0.0000
  34 H           -2.0762    -3.6558     1.4740 H            1    LIG   0.0000
  35 H           -0.2017    -2.1636     1.4066 H            1    LIG   0.0000
  36 H            4.0317     2.5774    -0.1359 H            1    LIG   0.0000
  37 H            6.4210     2.3982    -0.1659 H            1    LIG   0.0000
  38 H            7.4574     0.2463    -0.1156 H            1    LIG   0.0000
  39 H            6.1208    -1.7315    -0.0352 H            1    LIG   0.0000
  40 H            3.7304    -1.5611    -0.0071 H            1    LIG   0.0000
  41 H           -2.1989     1.5017     0.2225 H            1    LIG   0.0000
  42 H           -1.4352     2.8967     0.5931 H            1    LIG   0.0000
  43 H           -2.0458     6.4711    -6.8286 H            1    LIG   0.0000
  44 H           -2.2175     0.2327    -1.3200 H            1    LIG   0.0000
  45 H           -4.0873    -1.2645    -1.2464 H            1    LIG   0.0000
@<TRIPOS>BOND
   1        1        2 1
   2        2        3 ar
   3        3        4 ar
   4        4        5 ar
   5        5        6 1
   6        6        7 1
   7        7        8 2
   8        8        9 1
   9        9       10 ar
  10       10       11 ar
  11       11       12 ar
  12       12       13 ar
  13       13       14 ar
  14       14        9 ar
  15        8       15 1
  16       15       16 1
  17       16        6 2
  18       16       17 1
  19       17       18 1
  20       18       19 2
  21       19       20 1
  22       20       21 1
  23       21       22 1
  24       22       23 2
  25       23       24 1
  26       24       25 1
  27       25       21 2
  28       20       26 2
  29       26       27 1
  30       27       18 1
  31        5       28 ar
  32       28       29 ar
  33       29        2 ar
  34       24       30 1
  35        1       31 1
  36        1       32 1
  37        1       33 1
  38        3       34 1
  39        4       35 1
  40       10       36 1
  41       11       37 1
  42       12       38 1
  43       13       39 1
  44       14       40 1
  45       17       41 1
  46       17       42 1
  47       23       43 1
  48       28       44 1
  49       29       45 1

@<TRIPOS>MOLECULE

  45   49
SMALL
USER_CHARGES
@<TRIPOS>ATOM
   1 C1          -4.4125    -3.5293     0.1649 C.3          1    LIG   0.0000
   2 C2          -3.2281    -2.5789     0.1181 C.ar         1    LIG   0.0000
   3 C3          -2.1027    -2.8436     0.8912 C.ar         1    LIG   0.0000
   4 C4          -1.0141    -1.9785     0.8537 C.ar         1    LIG   0.0000
   5 C5          -1.0685    -0.8529     0.0382 C.ar         1    LIG   0.0000
   6 C6           0.0636     0.0516    -0.0046 C.2          1    LIG   0.0000
   7 N7           1.3728    -0.3500    -0.0065 N.2          1    LIG   0.0000
   8 C8           2.2538     0.6221    -0.0514 C.2          1    LIG   0.0000
   9 C9           3.7004     0.5214    -0.0689 C.ar         1    LIG   0.0000
  10 C10          4.4704     1.6790    -0.1152 C.ar         1    LIG   0.0000
  11 C11          5.8571     1.5731    -0.1325 C.ar         1    LIG   0.0000
  12 C12          6.4601     0.3193    -0.1031 C.ar         1    LIG   0.0000
  13 C13          5.6823    -0.8331    -0.0566 C.ar         1    LIG   0.0000
  14 C14          4.2945    -0.7360    -0.0398 C.ar         1    LIG   0.0000
  15 S15          1.4115     2.0979    -0.0845 S.3          1    LIG   0.0000
  16 C16         -0.1388     1.4003    -0.0437 C.2          1    LIG   0.0000
  17 C17         -1.4717     2.1318    -0.0499 C.3          1    LIG   0.0000
  18 C18         -2.2968     1.6915     1.1482 C.2          1    LIG   0.0000
  19 N19         -2.2864     2.2515     2.3304 N.2          1    LIG   0.0000
  20 C20         -3.1695     1.5309     3.0706 C.2          1    LIG   0.0000
  21 C21         -3.5033     1.7700     4.4611 C.2          1    LIG   0.0000
  22 N22         -4.3884     1.0404     5.1963 N.2          1    LIG   0.0000
  23 C23         -4.4103     1.5679     6.3994 C.2          1    LIG   0.0000
  24 N24         -3.5422     2.6200     6.4047 N.pl3        1    LIG   0.0000
  25 N25         -3.0020     2.7240     5.2112 N.2          1    LIG   0.0000
  26 N26         -3.6632     0.5830     2.3138 N.2          1    LIG   0.0000
  27 O27         -3.1386     0.6879     1.1706 O.2          1    LIG   0.0000
  28 C28         -2.1907    -0.5798    -0.7377 C.ar         1    LIG   0.0000
  29 C29         -3.2745    -1.4500    -0.6941 C.ar         1    LIG   0.0000
  30 H           -3.3490     3.2131     7.1862 H            1    LIG   0.0000
  31 H           -5.1318    -3.1956    -0.4444 H            1    LIG   0.0000
  32 H           -4.1215    -4.4394    -0.1300 H            1    LIG   0.0000
  33 H           -4.7639    -3.5783     1.0999 H            1    LIG   0.0000
  34 H           -2.0762    -3.6558     1.4740 H            1    LIG   0.0000
  35 H           -0.2017    -2.1636     1.4066 H            1    LIG   0.0000
  36 H            4.0317     2.5774    -0.1359 H            1    LIG   0.0000
  37 H            6.4210     2.3982    -0.1659 H            1    LIG   0.0000
  38 H            7.4574     0.2463    -0.1156 H            1    LIG   0.0000
  39 H            6.1208    -1.7315    -0.0352 H            1    LIG   0.0000
  40 H            3.7304    -1.5611    -0.0071 H            1    LIG   0.0000
  41 H           -1.3113     3.1175    -0.0001 H            1    LIG   0.0000
  42 H           -1.9660     1.9167    -0.8922 H            1    LIG   0.0000
  43 H           -4.9634     1.2548     7.1714 H            1    LIG   0.0000
  44 H           -2.2175     0.2327    -1.3200 H            1    LIG   0.0000
  45 H           -4.0873    -1.2645    -1.2464 H            1    LIG   0.0000
@<TRIPOS>BOND
   1        1        2 1
   2        2        3 ar
   3        3        4 ar
   4        4        5 ar
   5        5        6 1
   6        6        7 1
   7        7        8 2
   8        8        9 1
   9        9       10 ar
  10       10       11 ar
  11       11       12 ar
  12       12       13 ar
  13       13       14 ar
  14       14        9 ar
  15        8       15 1
  16       15       16 1
  17       16        6 2
  18       16       17 1
  19       17       18 1
  20       18       19 2
  21       19       20 1
  22       20       21 1
  23       21       22 1
  24       22       23 2
  25       23       24 1
  26       24       25 1
  27       25       21 2
  28       20       26 2
  29       26       27 1
  30       27       18 1
  31        5       28 ar
  32       28       29 ar
  33       29        2 ar
  34       24       30 1
  35        1       31 1
  36        1       32 1
  37        1       33 1
  38        3       34 1
  39        4       35 1
  40       10       36 1
  41       11       37 1
  42       12       38 1
  43       13       39 1
  44       14       40 1
  45       17       41 1
  46       17       42 1
  47       23       43 1
  48       28       44 1
  49       29       45 1

@<TRIPOS>MOLECULE

  45   49
SMALL
USER_CHARGES
@<TRIPOS>ATOM
   1 C1          -4.4125    -3.5293     0.1649 C.3          1    LIG   0.0000
   2 C2          -3.2281    -2.5789     0.1181 C.ar         1    LIG   0.0000
   3 C3          -2.1027    -2.8436     0.8912 C.ar         1    LIG   0.0000
   4 C4          -1.0141    -1.9785     0.8537 C.ar         1    LIG   0.0000
   5 C5          -1.0685    -0.8529     0.0382 C.ar         1    LIG   0.0000
   6 C6           0.0636     0.0516    -0.0046 C.2          1    LIG   0.0000
   7 N7           1.3728    -0.3500    -0.0065 N.2          1    LIG   0.0000
   8 C8           2.2538     0.6221    -0.0514 C.2          1    LIG   0.0000
   9 C9           3.7004     0.5214    -0.0689 C.ar         1    LIG   0.0000
  10 C10          4.4704     1.6790    -0.1152 C.ar         1    LIG   0.0000
  11 C11          5.8571     1.5731    -0.1325 C.ar         1    LIG   0.0000
  12 C12          6.4601     0.3193    -0.1031 C.ar         1    LIG   0.0000
  13 C13          5.6823    -0.8331    -0.0566 C.ar         1    LIG   0.0000
  14 C14          4.2945    -0.7360    -0.0398 C.ar         1    LIG   0.0000
  15 S15          1.4115     2.0979    -0.0845 S.3          1    LIG   0.0000
  16 C16         -0.1388     1.4003    -0.0437 C.2          1    LIG   0.0000
  17 C17         -1.4717     2.1318    -0.0499 C.3          1    LIG   0.0000
  18 C18         -2.2968     1.6915     1.1482 C.2          1    LIG   0.0000
  19 N19         -3.1368     0.6889     1.1706 N.2          1    LIG   0.0000
  20 C20         -3.6342     0.6728     2.4352 C.2          1    LIG   0.0000
  21 C21         -4.6121    -0.2662     2.9494 C.2          1    LIG   0.0000
  22 N22         -5.1072    -0.2731     4.2186 N.2          1    LIG   0.0000
  23 C23         -5.9620    -1.2684     4.2886 C.2          1    LIG   0.0000
  24 N24         -5.9922    -1.8734     3.0664 N.pl3        1    LIG   0.0000
  25 N25         -5.1599    -1.2450     2.2668 N.2          1    LIG   0.0000
  26 N26         -3.0820     1.6520     3.1069 N.2          1    LIG   0.0000
  27 O27         -2.2860     2.2517     2.3325 O.2          1    LIG   0.0000
  28 C28         -2.1907    -0.5798    -0.7377 C.ar         1    LIG   0.0000
  29 C29         -3.2745    -1.4500    -0.6941 C.ar         1    LIG   0.0000
  30 H           -6.5539    -2.6632     2.8200 H            1    LIG   0.0000
  31 H           -5.1318    -3.1956    -0.4444 H            1    LIG   0.0000
  32 H           -4.1215    -4.4394    -0.1300 H            1    LIG   0.0000
  33 H           -4.7639    -3.5783     1.0999 H            1    LIG   0.0000
  34 H           -2.0762    -3.6558     1.4740 H            1    LIG   0.0000
  35 H           -0.2017    -2.1636     1.4066 H            1    LIG   0.0000
  36 H            4.0317     2.5774    -0.1359 H            1    LIG   0.0000
  37 H            6.4210     2.3982    -0.1659 H            1    LIG   0.0000
  38 H            7.4574     0.2463    -0.1156 H            1    LIG   0.0000
  39 H            6.1208    -1.7315    -0.0352 H            1    LIG   0.0000
  40 H            3.7304    -1.5611    -0.0071 H            1    LIG   0.0000
  41 H           -1.3113     3.1175    -0.0001 H            1    LIG   0.0000
  42 H           -1.9660     1.9167    -0.8922 H            1    LIG   0.0000
  43 H           -6.4942    -1.5343     5.0924 H            1    LIG   0.0000
  44 H           -2.2175     0.2327    -1.3200 H            1    LIG   0.0000
  45 H           -4.0873    -1.2645    -1.2464 H            1    LIG   0.0000
@<TRIPOS>BOND
   1        1        2 1
   2        2        3 ar
   3        3        4 ar
   4        4        5 ar
   5        5        6 1
   6        6        7 1
   7        7        8 2
   8        8        9 1
   9        9       10 ar
  10       10       11 ar
  11       11       12 ar
  12       12       13 ar
  13       13       14 ar
  14       14        9 ar
  15        8       15 1
  16       15       16 1
  17       16        6 2
  18       16       17 1
  19       17       18 1
  20       18       19 2
  21       19       20 1
  22       20       21 1
  23       21       22 1
  24       22       23 2
  25       23       24 1
  26       24       25 1
  27       25       21 2
  28       20       26 2
  29       26       27 1
  30       27       18 1
  31        5       28 ar
  32       28       29 ar
  33       29        2 ar
  34       24       30 1
  35        1       31 1
  36        1       32 1
  37        1       33 1
  38        3       34 1
  39        4       35 1
  40       10       36 1
  41       11       37 1
  42       12       38 1
  43       13       39 1
  44       14       40 1
  45       17       41 1
  46       17       42 1
  47       23       43 1
  48       28       44 1
  49       29       45 1

@<TRIPOS>MOLECULE

  45   49
SMALL
USER_CHARGES
@<TRIPOS>ATOM
   1 C1          -4.4125    -3.5293     0.1649 C.3          1    LIG   0.0000
   2 C2          -3.2281    -2.5789     0.1181 C.ar         1    LIG   0.0000
   3 C3          -2.1027    -2.8436     0.8912 C.ar         1    LIG   0.0000
   4 C4          -1.0141    -1.9785     0.8537 C.ar         1    LIG   0.0000
   5 C5          -1.0685    -0.8529     0.0382 C.ar         1    LIG   0.0000
   6 C6           0.0636     0.0516    -0.0046 C.2          1    LIG   0.0000
   7 N7           1.3728    -0.3500    -0.0065 N.2          1    LIG   0.0000
   8 C8           2.2538     0.6221    -0.0514 C.2          1    LIG   0.0000
   9 C9           3.7004     0.5214    -0.0689 C.ar         1    LIG   0.0000
  10 C10          4.4704     1.6790    -0.1152 C.ar         1    LIG   0.0000
  11 C11          5.8571     1.5731    -0.1325 C.ar         1    LIG   0.0000
  12 C12          6.4601     0.3193    -0.1031 C.ar         1    LIG   0.0000
  13 C13          5.6823    -0.8331    -0.0566 C.ar         1    LIG   0.0000
  14 C14          4.2945    -0.7360    -0.0398 C.ar         1    LIG   0.0000
  15 S15          1.4115     2.0979    -0.0845 S.3          1    LIG   0.0000
  16 C16         -0.1388     1.4003    -0.0437 C.2          1    LIG   0.0000
  17 C17         -1.4717     2.1318    -0.0499 C.3          1    LIG   0.0000
  18 C18         -1.2268     3.6309    -0.0991 C.2          1    LIG   0.0000
  19 N19         -1.1173     4.3521    -1.1851 N.2          1    LIG   0.0000
  20 C20         -0.9072     5.6212    -0.7469 C.2          1    LIG   0.0000
  21 C21         -0.7215     6.7881    -1.5872 C.2          1    LIG   0.0000
  22 N22         -0.7323     6.7886    -2.9495 N.2          1    LIG   0.0000
  23 C23         -0.5319     8.0295    -3.3318 C.2          1    LIG   0.0000
  24 N24         -0.3968     8.7908    -2.2080 N.pl3        1    LIG   0.0000
  25 N25         -0.5152     8.0113    -1.1567 N.2          1    LIG   0.0000
  26 N26         -0.8977     5.6080     0.5625 N.2          1    LIG   0.0000
  27 O27         -1.0904     4.4187     0.9388 O.2          1    LIG   0.0000
  28 C28         -2.1907    -0.5798    -0.7377 C.ar         1    LIG   0.0000
  29 C29         -3.2745    -1.4500    -0.6941 C.ar         1    LIG   0.0000
  30 H           -0.2347     9.7774    -2.1876 H            1    LIG   0.0000
  31 H           -5.1318    -3.1956    -0.4444 H            1    LIG   0.0000
  32 H           -4.1215    -4.4394    -0.1300 H            1    LIG   0.0000
  33 H           -4.7639    -3.5783     1.0999 H            1    LIG   0.0000
  34 H           -2.0762    -3.6558     1.4740 H            1    LIG   0.0000
  35 H           -0.2017    -2.1636     1.4066 H            1    LIG   0.0000
  36 H            4.0317     2.5774    -0.1359 H            1    LIG   0.0000
  37 H            6.4210     2.3982    -0.1659 H            1    LIG   0.0000
  38 H            7.4574     0.2463    -0.1156 H            1    LIG   0.0000
  39 H            6.1208    -1.7315    -0.0352 H            1    LIG   0.0000
  40 H            3.7304    -1.5611    -0.0071 H            1    LIG   0.0000
  41 H           -2.0007     1.8539    -0.8518 H            1    LIG   0.0000
  42 H           -1.9807     1.9042     0.7803 H            1    LIG   0.0000
  43 H           -0.4866     8.3567    -4.2756 H            1    LIG   0.0000
  44 H           -2.2175     0.2327    -1.3200 H            1    LIG   0.0000
  45 H           -4.0873    -1.2645    -1.2464 H            1    LIG   0.0000
@<TRIPOS>BOND
   1        1        2 1
   2        2        3 ar
   3        3        4 ar
   4        4        5 ar
   5        5        6 1
   6        6        7 1
   7        7        8 2
   8        8        9 1
   9        9       10 ar
  10       10       11 ar
  11       11       12 ar
  12       12       13 ar
  13       13       14 ar
  14       14        9 ar
  15        8       15 1
  16       15       16 1
  17       16        6 2
  18       16       17 1
  19       17       18 1
  20       18       19 2
  21       19       20 1
  22       20       21 1
  23       21       22 1
  24       22       23 2
  25       23       24 1
  26       24       25 1
  27       25       21 2
  28       20       26 2
  29       26       27 1
  30       27       18 1
  31        5       28 ar
  32       28       29 ar
  33       29        2 ar
  34       24       30 1
  35        1       31 1
  36        1       32 1
  37        1       33 1
  38        3       34 1
  39        4       35 1
  40       10       36 1
  41       11       37 1
  42       12       38 1
  43       13       39 1
  44       14       40 1
  45       17       41 1
  46       17       42 1
  47       23       43 1
  48       28       44 1
  49       29       45 1

@<TRIPOS>MOLECULE

  45   49
SMALL
USER_CHARGES
@<TRIPOS>ATOM
   1 C1          -4.4125    -3.5293     0.1649 C.3          1    LIG   0.0000
   2 C2          -3.2281    -2.5789     0.1181 C.ar         1    LIG   0.0000
   3 C3          -2.1027    -2.8436     0.8912 C.ar         1    LIG   0.0000
   4 C4          -1.0141    -1.9785     0.8537 C.ar         1    LIG   0.0000
   5 C5          -1.0685    -0.8529     0.0382 C.ar         1    LIG   0.0000
   6 C6           0.0636     0.0516    -0.0046 C.2          1    LIG   0.0000
   7 N7           1.3728    -0.3500    -0.0065 N.2          1    LIG   0.0000
   8 C8           2.2538     0.6221    -0.0514 C.2          1    LIG   0.0000
   9 C9           3.7004     0.5214    -0.0689 C.ar         1    LIG   0.0000
  10 C10          4.4704     1.6790    -0.1152 C.ar         1    LIG   0.0000
  11 C11          5.8571     1.5731    -0.1325 C.ar         1    LIG   0.0000
  12 C12          6.4601     0.3193    -0.1031 C.ar         1    LIG   0.0000
  13 C13          5.6823    -0.8331    -0.0566 C.ar         1    LIG   0.0000
  14 C14          4.2945    -0.7360    -0.0398 C.ar         1    LIG   0.0000
  15 S15          1.4115     2.0979    -0.0845 S.3          1    LIG   0.0000
  16 C16         -0.1388     1.4003    -0.0437 C.2          1    LIG   0.0000
  17 C17         -1.4717     2.1318    -0.0499 C.3          1    LIG   0.0000
  18 C18         -1.2268     3.6309    -0.0991 C.2          1    LIG   0.0000
  19 N19         -1.0899     4.4172     0.9374 N.2          1    LIG   0.0000
  20 C20         -0.8901     5.6566     0.4169 C.2          1    LIG   0.0000
  21 C21         -0.6863     6.8731     1.1790 C.2          1    LIG   0.0000
  22 N22         -0.6617     6.9571     2.5385 N.2          1    LIG   0.0000
  23 C23         -0.4532     8.2191     2.8386 C.2          1    LIG   0.0000
  24 N24         -0.3509     8.9104     1.6672 N.pl3        1    LIG   0.0000
  25 N25         -0.4975     8.0683     0.6691 N.2          1    LIG   0.0000
  26 N26         -0.9170     5.5635    -0.8891 N.2          1    LIG   0.0000
  27 O27         -1.1164     4.3532    -1.1866 O.2          1    LIG   0.0000
  28 C28         -2.1907    -0.5798    -0.7377 C.ar         1    LIG   0.0000
  29 C29         -3.2745    -1.4500    -0.6941 C.ar         1    LIG   0.0000
  30 H           -0.1910     9.8939     1.5821 H            1    LIG   0.0000
  31 H           -5.1318    -3.1956    -0.4444 H            1    LIG   0.0000
  32 H           -4.1215    -4.4394    -0.1300 H            1    LIG   0.0000
  33 H           -4.7639    -3.5783     1.0999 H            1    LIG   0.0000
  34 H           -2.0762    -3.6558     1.4740 H            1    LIG   0.0000
  35 H           -0.2017    -2.1636     1.4066 H            1    LIG   0.0000
  36 H            4.0317     2.5774    -0.1359 H            1    LIG   0.0000
  37 H            6.4210     2.3982    -0.1659 H            1    LIG   0.0000
  38 H            7.4574     0.2463    -0.1156 H            1    LIG   0.0000
  39 H            6.1208    -1.7315    -0.0352 H            1    LIG   0.0000
  40 H            3.7304    -1.5611    -0.0071 H            1    LIG   0.0000
  41 H           -2.0007     1.8539    -0.8518 H            1    LIG   0.0000
  42 H           -1.9807     1.9042     0.7803 H            1    LIG   0.0000
  43 H           -0.3822     8.6033     3.7591 H            1    LIG   0.0000
  44 H           -2.2175     0.2327    -1.3200 H            1    LIG   0.0000
  45 H           -4.0873    -1.2645    -1.2464 H            1    LIG   0.0000
@<TRIPOS>BOND
   1        1        2 1
   2        2        3 ar
   3        3        4 ar
   4        4        5 ar
   5        5        6 1
   6        6        7 1
   7        7        8 2
   8        8        9 1
   9        9       10 ar
  10       10       11 ar
  11       11       12 ar
  12       12       13 ar
  13       13       14 ar
  14       14        9 ar
  15        8       15 1
  16       15       16 1
  17       16        6 2
  18       16       17 1
  19       17       18 1
  20       18       19 2
  21       19       20 1
  22       20       21 1
  23       21       22 1
  24       22       23 2
  25       23       24 1
  26       24       25 1
  27       25       21 2
  28       20       26 2
  29       26       27 1
  30       27       18 1
  31        5       28 ar
  32       28       29 ar
  33       29        2 ar
  34       24       30 1
  35        1       31 1
  36        1       32 1
  37        1       33 1
  38        3       34 1
  39        4       35 1
  40       10       36 1
  41       11       37 1
  42       12       38 1
  43       13       39 1
  44       14       40 1
  45       17       41 1
  46       17       42 1
  47       23       43 1
  48       28       44 1
  49       29       45 1

@<TRIPOS>MOLECULE

  45   49
SMALL
USER_CHARGES
@<TRIPOS>ATOM
   1 C1          -4.4125    -3.5293     0.1649 C.3          1    LIG   0.0000
   2 C2          -3.2281    -2.5789     0.1181 C.ar         1    LIG   0.0000
   3 C3          -2.1027    -2.8436     0.8912 C.ar         1    LIG   0.0000
   4 C4          -1.0141    -1.9785     0.8537 C.ar         1    LIG   0.0000
   5 C5          -1.0685    -0.8529     0.0382 C.ar         1    LIG   0.0000
   6 C6           0.0636     0.0516    -0.0046 C.2          1    LIG   0.0000
   7 N7           1.3728    -0.3500    -0.0065 N.2          1    LIG   0.0000
   8 C8           2.2538     0.6221    -0.0514 C.2          1    LIG   0.0000
   9 C9           3.7004     0.5214    -0.0689 C.ar         1    LIG   0.0000
  10 C10          4.4704     1.6790    -0.1152 C.ar         1    LIG   0.0000
  11 C11          5.8571     1.5731    -0.1325 C.ar         1    LIG   0.0000
  12 C12          6.4601     0.3193    -0.1031 C.ar         1    LIG   0.0000
  13 C13          5.6823    -0.8331    -0.0566 C.ar         1    LIG   0.0000
  14 C14          4.2945    -0.7360    -0.0398 C.ar         1    LIG   0.0000
  15 S15          1.4115     2.0979    -0.0845 S.3          1    LIG   0.0000
  16 C16         -0.1388     1.4003    -0.0437 C.2          1    LIG   0.0000
  17 C17         -1.4717     2.1318    -0.0499 C.3          1    LIG   0.0000
  18 C18         -1.3767     3.3656     0.8325 C.2          1    LIG   0.0000
  19 N19         -1.0114     4.5590     0.4405 N.2          1    LIG   0.0000
  20 C20         -1.0763     5.3326     1.5560 C.2          1    LIG   0.0000
  21 C21         -0.7597     6.7458     1.6268 C.2          1    LIG   0.0000
  22 N22         -0.8252     7.5131     2.7506 N.2          1    LIG   0.0000
  23 C23         -0.4630     8.7277     2.4043 C.2          1    LIG   0.0000
  24 N24         -0.1764     8.7085     1.0709 N.pl3        1    LIG   0.0000
  25 N25         -0.3658     7.4892     0.6188 N.2          1    LIG   0.0000
  26 N26         -1.4698     4.5824     2.5545 N.2          1    LIG   0.0000
  27 O27         -1.6476     3.4132     2.1134 O.2          1    LIG   0.0000
  28 C28         -2.1907    -0.5798    -0.7377 C.ar         1    LIG   0.0000
  29 C29         -3.2745    -1.4500    -0.6941 C.ar         1    LIG   0.0000
  30 H            0.1271     9.4915     0.5280 H            1    LIG   0.0000
  31 H           -5.1318    -3.1956    -0.4444 H            1    LIG   0.0000
  32 H           -4.1215    -4.4394    -0.1300 H            1    LIG   0.0000
  33 H           -4.7639    -3.5783     1.0999 H            1    LIG   0.0000
  34 H           -2.0762    -3.6558     1.4740 H            1    LIG   0.0000
  35 H           -0.2017    -2.1636     1.4066 H            1    LIG   0.0000
  36 H            4.0317     2.5774    -0.1359 H            1    LIG   0.0000
  37 H            6.4210     2.3982    -0.1659 H            1    LIG   0.0000
  38 H            7.4574     0.2463    -0.1156 H            1    LIG   0.0000
  39 H            6.1208    -1.7315    -0.0352 H            1    LIG   0.0000
  40 H            3.7304    -1.5611    -0.0071 H            1    LIG   0.0000
  41 H           -1.6966     2.4070    -0.9847 H            1    LIG   0.0000
  42 H           -2.1861     1.5258     0.3001 H            1    LIG   0.0000
  43 H           -0.4074     9.5223     3.0089 H            1    LIG   0.0000
  44 H           -2.2175     0.2327    -1.3200 H            1    LIG   0.0000
  45 H           -4.0873    -1.2645    -1.2464 H            1    LIG   0.0000
@<TRIPOS>BOND
   1        1        2 1
   2        2        3 ar
   3        3        4 ar
   4        4        5 ar
   5        5        6 1
   6        6        7 1
   7        7        8 2
   8        8        9 1
   9        9       10 ar
  10       10       11 ar
  11       11       12 ar
  12       12       13 ar
  13       13       14 ar
  14       14        9 ar
  15        8       15 1
  16       15       16 1
  17       16        6 2
  18       16       17 1
  19       17       18 1
  20       18       19 2
  21       19       20 1
  22       20       21 1
  23       21       22 1
  24       22       23 2
  25       23       24 1
  26       24       25 1
  27       25       21 2
  28       20       26 2
  29       26       27 1
  30       27       18 1
  31        5       28 ar
  32       28       29 ar
  33       29        2 ar
  34       24       30 1
  35        1       31 1
  36        1       32 1
  37        1       33 1
  38        3       34 1
  39        4       35 1
  40       10       36 1
  41       11       37 1
  42       12       38 1
  43       13       39 1
  44       14       40 1
  45       17       41 1
  46       17       42 1
  47       23       43 1
  48       28       44 1
  49       29       45 1

@<TRIPOS>MOLECULE

  45   49
SMALL
USER_CHARGES
@<TRIPOS>ATOM
   1 C1          -4.4125    -3.5293     0.1649 C.3          1    LIG   0.0000
   2 C2          -3.2281    -2.5789     0.1181 C.ar         1    LIG   0.0000
   3 C3          -2.1027    -2.8436     0.8912 C.ar         1    LIG   0.0000
   4 C4          -1.0141    -1.9785     0.8537 C.ar         1    LIG   0.0000
   5 C5          -1.0685    -0.8529     0.0382 C.ar         1    LIG   0.0000
   6 C6           0.0636     0.0516    -0.0046 C.2          1    LIG   0.0000
   7 N7           1.3728    -0.3500    -0.0065 N.2          1    LIG   0.0000
   8 C8           2.2538     0.6221    -0.0514 C.2          1    LIG   0.0000
   9 C9           3.7004     0.5214    -0.0689 C.ar         1    LIG   0.0000
  10 C10          4.4704     1.6790    -0.1152 C.ar         1    LIG   0.0000
  11 C11          5.8571     1.5731    -0.1325 C.ar         1    LIG   0.0000
  12 C12          6.4601     0.3193    -0.1031 C.ar         1    LIG   0.0000
  13 C13          5.6823    -0.8331    -0.0566 C.ar         1    LIG   0.0000
  14 C14          4.2945    -0.7360    -0.0398 C.ar         1    LIG   0.0000
  15 S15          1.4115     2.0979    -0.0845 S.3          1    LIG   0.0000
  16 C16         -0.1388     1.4003    -0.0437 C.2          1    LIG   0.0000
  17 C17         -1.4717     2.1318    -0.0499 C.3          1    LIG   0.0000
  18 C18         -1.3767     3.3656     0.8325 C.2          1    LIG   0.0000
  19 N19         -1.6465     3.4128     2.1116 N.2          1    LIG   0.0000
  20 C20         -1.4226     4.7037     2.4727 C.2          1    LIG   0.0000
  21 C21         -1.5881     5.2521     3.8047 C.2          1    LIG   0.0000
  22 N22         -1.3637     6.5488     4.1571 N.2          1    LIG   0.0000
  23 C23         -1.6250     6.6454     5.4410 C.2          1    LIG   0.0000
  24 N24         -2.0080     5.4114     5.8783 N.pl3        1    LIG   0.0000
  25 N25         -1.9767     4.5782     4.8625 N.2          1    LIG   0.0000
  26 N26         -1.0359     5.3664     1.4115 N.2          1    LIG   0.0000
  27 O27         -1.0101     4.5607     0.4403 O.2          1    LIG   0.0000
  28 C28         -2.1907    -0.5798    -0.7377 C.ar         1    LIG   0.0000
  29 C29         -3.2745    -1.4500    -0.6941 C.ar         1    LIG   0.0000
  30 H           -2.2691     5.1795     6.8153 H            1    LIG   0.0000
  31 H           -5.1318    -3.1956    -0.4444 H            1    LIG   0.0000
  32 H           -4.1215    -4.4394    -0.1300 H            1    LIG   0.0000
  33 H           -4.7639    -3.5783     1.0999 H            1    LIG   0.0000
  34 H           -2.0762    -3.6558     1.4740 H            1    LIG   0.0000
  35 H           -0.2017    -2.1636     1.4066 H            1    LIG   0.0000
  36 H            4.0317     2.5774    -0.1359 H            1    LIG   0.0000
  37 H            6.4210     2.3982    -0.1659 H            1    LIG   0.0000
  38 H            7.4574     0.2463    -0.1156 H            1    LIG   0.0000
  39 H            6.1208    -1.7315    -0.0352 H            1    LIG   0.0000
  40 H            3.7304    -1.5611    -0.0071 H            1    LIG   0.0000
  41 H           -1.6966     2.4070    -0.9847 H            1    LIG   0.0000
  42 H           -2.1861     1.5258     0.3001 H            1    LIG   0.0000
  43 H           -1.5556     7.4736     5.9971 H            1    LIG   0.0000
  44 H           -2.2175     0.2327    -1.3200 H            1    LIG   0.0000
  45 H           -4.0873    -1.2645    -1.2464 H            1    LIG   0.0000
@<TRIPOS>BOND
   1        1        2 1
   2        2        3 ar
   3        3        4 ar
   4        4        5 ar
   5        5        6 1
   6        6        7 1
   7        7        8 2
   8        8        9 1
   9        9       10 ar
  10       10       11 ar
  11       11       12 ar
  12       12       13 ar
  13       13       14 ar
  14       14        9 ar
  15        8       15 1
  16       15       16 1
  17       16        6 2
  18       16       17 1
  19       17       18 1
  20       18       19 2
  21       19       20 1
  22       20       21 1
  23       21       22 1
  24       22       23 2
  25       23       24 1
  26       24       25 1
  27       25       21 2
  28       20       26 2
  29       26       27 1
  30       27       18 1
  31        5       28 ar
  32       28       29 ar
  33       29        2 ar
  34       24       30 1
  35        1       31 1
  36        1       32 1
  37        1       33 1
  38        3       34 1
  39        4       35 1
  40       10       36 1
  41       11       37 1
  42       12       38 1
  43       13       39 1
  44       14       40 1
  45       17       41 1
  46       17       42 1
  47       23       43 1
  48       28       44 1
  49       29       45 1

@<TRIPOS>MOLECULE

  45   49
SMALL
USER_CHARGES
@<TRIPOS>ATOM
   1 C1          -4.4125    -3.5293     0.1649 C.3          1    LIG   0.0000
   2 C2          -3.2281    -2.5789     0.1181 C.ar         1    LIG   0.0000
   3 C3          -2.1027    -2.8436     0.8912 C.ar         1    LIG   0.0000
   4 C4          -1.0141    -1.9785     0.8537 C.ar         1    LIG   0.0000
   5 C5          -1.0685    -0.8529     0.0382 C.ar         1    LIG   0.0000
   6 C6           0.0636     0.0516    -0.0046 C.2          1    LIG   0.0000
   7 N7           1.3728    -0.3500    -0.0065 N.2          1    LIG   0.0000
   8 C8           2.2538     0.6221    -0.0514 C.2          1    LIG   0.0000
   9 C9           3.7004     0.5214    -0.0689 C.ar         1    LIG   0.0000
  10 C10          4.4704     1.6790    -0.1152 C.ar         1    LIG   0.0000
  11 C11          5.8571     1.5731    -0.1325 C.ar         1    LIG   0.0000
  12 C12          6.4601     0.3193    -0.1031 C.ar         1    LIG   0.0000
  13 C13          5.6823    -0.8331    -0.0566 C.ar         1    LIG   0.0000
  14 C14          4.2945    -0.7360    -0.0398 C.ar         1    LIG   0.0000
  15 S15          1.4115     2.0979    -0.0845 S.3          1    LIG   0.0000
  16 C16         -0.1388     1.4003    -0.0437 C.2          1    LIG   0.0000
  17 C17         -1.4717     2.1318    -0.0499 C.3          1    LIG   0.0000
  18 C18         -1.5561     3.0414     1.1647 C.2          1    LIG   0.0000
  19 N19         -2.0336     2.7092     2.3364 N.2          1    LIG   0.0000
  20 C20         -1.9068     3.8266     3.0995 C.2          1    LIG   0.0000
  21 C21         -2.3036     3.9540     4.4883 C.2          1    LIG   0.0000
  22 N22         -2.8638     2.9670     5.2420 N.2          1    LIG   0.0000
  23 C23         -3.0744     3.4727     6.4362 C.2          1    LIG   0.0000
  24 N24         -2.6463     4.7677     6.4175 N.pl3        1    LIG   0.0000
  25 N25         -2.1813     5.0383     5.2185 N.2          1    LIG   0.0000
  26 N26         -1.3689     4.7676     2.3647 N.2          1    LIG   0.0000
  27 O27         -1.1623     4.2900     1.2148 O.2          1    LIG   0.0000
  28 C28         -2.1907    -0.5798    -0.7377 C.ar         1    LIG   0.0000
  29 C29         -3.2745    -1.4500    -0.6941 C.ar         1    LIG   0.0000
  30 H           -2.6805     5.4047     7.1876 H            1    LIG   0.0000
  31 H           -5.1318    -3.1956    -0.4444 H            1    LIG   0.0000
  32 H           -4.1215    -4.4394    -0.1300 H            1    LIG   0.0000
  33 H           -4.7639    -3.5783     1.0999 H            1    LIG   0.0000
  34 H           -2.0762    -3.6558     1.4740 H            1    LIG   0.0000
  35 H           -0.2017    -2.1636     1.4066 H            1    LIG   0.0000
  36 H            4.0317     2.5774    -0.1359 H            1    LIG   0.0000
  37 H            6.4210     2.3982    -0.1659 H            1    LIG   0.0000
  38 H            7.4574     0.2463    -0.1156 H            1    LIG   0.0000
  39 H            6.1208    -1.7315    -0.0352 H            1    LIG   0.0000
  40 H            3.7304    -1.5611    -0.0071 H            1    LIG   0.0000
  41 H           -1.5472     2.6800    -0.8828 H            1    LIG   0.0000
  42 H           -2.2174     1.4661    -0.0203 H            1    LIG   0.0000
  43 H           -3.4759     2.9947     7.2175 H            1    LIG   0.0000
  44 H           -2.2175     0.2327    -1.3200 H            1    LIG   0.0000
  45 H           -4.0873    -1.2645    -1.2464 H            1    LIG   0.0000
@<TRIPOS>BOND
   1        1        2 1
   2        2        3 ar
   3        3        4 ar
   4        4        5 ar
   5        5        6 1
   6        6        7 1
   7        7        8 2
   8        8        9 1
   9        9       10 ar
  10       10       11 ar
  11       11       12 ar
  12       12       13 ar
  13       13       14 ar
  14       14        9 ar
  15        8       15 1
  16       15       16 1
  17       16        6 2
  18       16       17 1
  19       17       18 1
  20       18       19 2
  21       19       20 1
  22       20       21 1
  23       21       22 1
  24       22       23 2
  25       23       24 1
  26       24       25 1
  27       25       21 2
  28       20       26 2
  29       26       27 1
  30       27       18 1
  31        5       28 ar
  32       28       29 ar
  33       29        2 ar
  34       24       30 1
  35        1       31 1
  36        1       32 1
  37        1       33 1
  38        3       34 1
  39        4       35 1
  40       10       36 1
  41       11       37 1
  42       12       38 1
  43       13       39 1
  44       14       40 1
  45       17       41 1
  46       17       42 1
  47       23       43 1
  48       28       44 1
  49       29       45 1

