@<TRIPOS>MOLECULE
*****
 45 49 0 0 0
SMALL
USER_CHARGES

@<TRIPOS>ATOM
      1 C1         -4.4145   -3.5270    0.1610 C.3     1  LIG1        0.0000
      2 C2         -3.2294   -2.5772    0.1190 C.ar    1  LIG1        0.0000
      3 C3         -2.1209   -2.8943   -0.6586 C.ar    1  LIG1        0.0000
      4 C4         -1.0321   -2.0297   -0.7026 C.ar    1  LIG1        0.0000
      5 C5         -1.0685   -0.8529    0.0382 C.ar    1  LIG1        0.0000
      6 C6          0.0636    0.0516   -0.0046 C.2     1  LIG1        0.0000
      7 N7          1.3728   -0.3500   -0.0065 N.2     1  LIG1        0.0000
      8 C8          2.2538    0.6221   -0.0514 C.2     1  LIG1        0.0000
      9 C9          3.7004    0.5214   -0.0689 C.ar    1  LIG1        0.0000
     10 C10         4.4704    1.6790   -0.1152 C.ar    1  LIG1        0.0000
     11 C11         5.8571    1.5731   -0.1325 C.ar    1  LIG1        0.0000
     12 C12         6.4601    0.3193   -0.1031 C.ar    1  LIG1        0.0000
     13 C13         5.6823   -0.8331   -0.0566 C.ar    1  LIG1        0.0000
     14 C14         4.2945   -0.7360   -0.0398 C.ar    1  LIG1        0.0000
     15 S15         1.4115    2.0979   -0.0845 S.3     1  LIG1        0.0000
     16 C16        -0.1388    1.4003   -0.0437 C.2     1  LIG1        0.0000
     17 C17        -1.4717    2.1318   -0.0499 C.3     1  LIG1        0.0000
     18 C18        -1.7206    2.7430    1.3191 C.2     1  LIG1        0.0000
     19 N19        -2.3349    2.1599    2.3161 N.2     1  LIG1        0.0000
     20 C20        -2.3213    3.0732    3.3224 C.2     1  LIG1        0.0000
     21 C21        -2.8896    2.8873    4.6433 C.2     1  LIG1        0.0000
     22 N22        -2.8735    3.8099    5.6456 N.2     1  LIG1        0.0000
     23 C23        -3.4849    3.2663    6.6737 C.2     1  LIG1        0.0000
     24 N24        -3.8753    2.0121    6.3058 N.pl3   1  LIG1        0.0000
     25 N25        -3.5001    1.8036    5.0638 N.2     1  LIG1        0.0000
     26 N26        -1.7107    4.1492    2.8931 N.2     1  LIG1        0.0000
     27 O27        -1.3554    3.9423    1.6998 O.2     1  LIG1        0.0000
     28 C28        -2.1730   -0.5283    0.8196 C.ar    1  LIG1        0.0000
     29 C29        -3.2571   -1.3984    0.8578 C.ar    1  LIG1        0.0000
     30 H          -4.3652    1.3602    6.8847 H       1  LIG1        0.0000
     31 H          -5.1206   -3.1526    0.7620 H       1  LIG1        0.0000
     32 H          -4.7857   -3.6378   -0.7609 H       1  LIG1        0.0000
     33 H          -4.1171   -4.4159    0.5096 H       1  LIG1        0.0000
     34 H          -2.1065   -3.7437   -1.1861 H       1  LIG1        0.0000
     35 H          -0.2323   -2.2516   -1.2604 H       1  LIG1        0.0000
     36 H           4.0317    2.5774   -0.1359 H       1  LIG1        0.0000
     37 H           6.4210    2.3982   -0.1659 H       1  LIG1        0.0000
     38 H           7.4574    0.2463   -0.1156 H       1  LIG1        0.0000
     39 H           6.1208   -1.7315   -0.0352 H       1  LIG1        0.0000
     40 H           3.7304   -1.5611   -0.0071 H       1  LIG1        0.0000
     41 H          -1.4515    2.8557   -0.7395 H       1  LIG1        0.0000
     42 H          -2.2049    1.4867   -0.2652 H       1  LIG1        0.0000
     43 H          -3.6366    3.6944    7.5646 H       1  LIG1        0.0000
     44 H          -2.1870    0.3208    1.3477 H       1  LIG1        0.0000
     45 H          -4.0566   -1.1769    1.4162 H       1  LIG1        0.0000
@<TRIPOS>BOND
     1     1     2    1
     2     2     3   ar
     3     3     4   ar
     4     4     5   ar
     5     5     6    1
     6     6     7    1
     7     7     8    2
     8     8     9    1
     9     9    10   ar
    10    10    11   ar
    11    11    12   ar
    12    12    13   ar
    13    13    14   ar
    14    14     9   ar
    15     8    15    1
    16    15    16    1
    17    16     6    2
    18    16    17    1
    19    17    18    1
    20    18    19    2
    21    19    20    1
    22    20    21    1
    23    21    22    1
    24    22    23    2
    25    23    24    1
    26    24    25    1
    27    25    21    2
    28    20    26    2
    29    26    27    1
    30    27    18    1
    31     5    28   ar
    32    28    29   ar
    33    29     2   ar
    34    24    30    1
    35     1    31    1
    36     1    32    1
    37     1    33    1
    38     3    34    1
    39     4    35    1
    40    10    36    1
    41    11    37    1
    42    12    38    1
    43    13    39    1
    44    14    40    1
    45    17    41    1
    46    17    42    1
    47    23    43    1
    48    28    44    1
    49    29    45    1
