@<TRIPOS>MOLECULE

  36   38
SMALL
USER_CHARGES
@<TRIPOS>ATOM
   1 C1           1.0986    -4.1721     0.0263 C.3          1    LIG   0.0000
   2 C2           0.6265    -2.7273     0.0184 C.3          1    LIG   0.0000
   3 C3           1.8311    -1.8009    -0.0147 C.3          1    LIG   0.0000
   4 C4           1.3597    -0.3580    -0.0225 C.2          1    LIG   0.0000
   5 N5           2.2686     0.5874    -0.0504 N.2          1    LIG   0.0000
   6 S6           1.4270     2.0136    -0.0680 S.3          1    LIG   0.0000
   7 C7          -0.1399     1.3504    -0.0422 C.2          1    LIG   0.0000
   8 O8          -1.3148     2.0136    -0.0433 O.3          1    LIG   0.0000
   9 C9          -2.4194     1.2387    -0.0197 C.ar         1    LIG   0.0000
  10 C10         -2.9885     0.8254    -1.2198 C.ar         1    LIG   0.0000
  11 C11         -4.1269     0.0262    -1.1904 C.ar         1    LIG   0.0000
  12 C12         -4.6822    -0.3483     0.0282 C.ar         1    LIG   0.0000
  13 C13         -5.8206    -1.1481     0.0479 C.ar         1    LIG   0.0000
  14 C14         -6.3813    -1.5289     1.2629 C.ar         1    LIG   0.0000
  15 C15         -5.7935    -1.1028     2.4491 C.ar         1    LIG   0.0000
  16 C16         -6.3996    -1.5142     3.7802 C.3          1    LIG   0.0000
  17 C17         -4.6555    -0.3038     2.4428 C.ar         1    LIG   0.0000
  18 C18         -4.1034     0.0708     1.2228 C.ar         1    LIG   0.0000
  19 C19         -2.9648     0.8697     1.2057 C.ar         1    LIG   0.0000
  20 N20          0.0502     0.0621    -0.0137 N.2          1    LIG   0.0000
  21 H            0.3061    -4.7816     0.0481 H            1    LIG   0.0000
  22 H            1.6349    -4.3520    -0.7983 H            1    LIG   0.0000
  23 H            1.6653    -4.3332     0.8343 H            1    LIG   0.0000
  24 H            0.0598    -2.5662    -0.7895 H            1    LIG   0.0000
  25 H            0.0902    -2.5474     0.8431 H            1    LIG   0.0000
  26 H            2.3979    -1.9620     0.7933 H            1    LIG   0.0000
  27 H            2.3674    -1.9808    -0.8393 H            1    LIG   0.0000
  28 H           -2.5844     1.0992    -2.0926 H            1    LIG   0.0000
  29 H           -4.5459    -0.2788    -2.0457 H            1    LIG   0.0000
  30 H           -6.2355    -1.4490    -0.8107 H            1    LIG   0.0000
  31 H           -7.1994    -2.1037     1.2831 H            1    LIG   0.0000
  32 H           -7.2063    -2.0824     3.6178 H            1    LIG   0.0000
  33 H           -5.7265    -2.0337     4.3066 H            1    LIG   0.0000
  34 H           -6.6648    -0.6973     4.2924 H            1    LIG   0.0000
  35 H           -4.2408    -0.0035     3.3018 H            1    LIG   0.0000
  36 H           -2.5450     1.1740     2.0607 H            1    LIG   0.0000
@<TRIPOS>BOND
   1        1        2 1
   2        2        3 1
   3        3        4 1
   4        4        5 2
   5        5        6 1
   6        6        7 1
   7        7        8 1
   8        8        9 1
   9        9       10 ar
  10       10       11 ar
  11       11       12 ar
  12       12       13 ar
  13       13       14 ar
  14       14       15 ar
  15       15       16 1
  16       15       17 ar
  17       17       18 ar
  18       18       12 ar
  19       18       19 ar
  20       19        9 ar
  21        7       20 2
  22       20        4 1
  23        1       21 1
  24        1       22 1
  25        1       23 1
  26        2       24 1
  27        2       25 1
  28        3       26 1
  29        3       27 1
  30       10       28 1
  31       11       29 1
  32       13       30 1
  33       14       31 1
  34       16       32 1
  35       16       33 1
  36       16       34 1
  37       17       35 1
  38       19       36 1

@<TRIPOS>MOLECULE

  36   38
SMALL
USER_CHARGES
@<TRIPOS>ATOM
   1 C1           1.0986    -4.1721     0.0263 C.3          1    LIG   0.0000
   2 C2           0.6265    -2.7273     0.0184 C.3          1    LIG   0.0000
   3 C3           1.8311    -1.8009    -0.0147 C.3          1    LIG   0.0000
   4 C4           1.3597    -0.3580    -0.0225 C.2          1    LIG   0.0000
   5 N5           2.2686     0.5874    -0.0504 N.2          1    LIG   0.0000
   6 S6           1.4270     2.0136    -0.0680 S.3          1    LIG   0.0000
   7 C7          -0.1399     1.3504    -0.0422 C.2          1    LIG   0.0000
   8 O8          -1.3148     2.0136    -0.0433 O.3          1    LIG   0.0000
   9 C9          -2.4194     1.2387    -0.0197 C.ar         1    LIG   0.0000
  10 C10         -2.9670     0.8685     1.2043 C.ar         1    LIG   0.0000
  11 C11         -4.1060     0.0699     1.2236 C.ar         1    LIG   0.0000
  12 C12         -4.6817    -0.3490     0.0290 C.ar         1    LIG   0.0000
  13 C13         -5.8210    -1.1472     0.0580 C.ar         1    LIG   0.0000
  14 C14         -6.4044    -1.5690    -1.1326 C.ar         1    LIG   0.0000
  15 C15         -5.8380    -1.1853    -2.3434 C.ar         1    LIG   0.0000
  16 C16         -6.4688    -1.6417    -3.6481 C.3          1    LIG   0.0000
  17 C17         -4.6999    -0.3875    -2.3858 C.ar         1    LIG   0.0000
  18 C18         -4.1251     0.0283    -1.1898 C.ar         1    LIG   0.0000
  19 C19         -2.9867     0.8270    -1.2213 C.ar         1    LIG   0.0000
  20 N20          0.0502     0.0621    -0.0137 N.2          1    LIG   0.0000
  21 H            0.3061    -4.7816     0.0481 H            1    LIG   0.0000
  22 H            1.6349    -4.3520    -0.7983 H            1    LIG   0.0000
  23 H            1.6653    -4.3332     0.8343 H            1    LIG   0.0000
  24 H            0.0598    -2.5662    -0.7895 H            1    LIG   0.0000
  25 H            0.0902    -2.5474     0.8431 H            1    LIG   0.0000
  26 H            2.3979    -1.9620     0.7933 H            1    LIG   0.0000
  27 H            2.3674    -1.9808    -0.8393 H            1    LIG   0.0000
  28 H           -2.5473     1.1727     2.0595 H            1    LIG   0.0000
  29 H           -4.5107    -0.2029     2.0964 H            1    LIG   0.0000
  30 H           -6.2204    -1.4175     0.9340 H            1    LIG   0.0000
  31 H           -7.2233    -2.1427    -1.1178 H            1    LIG   0.0000
  32 H           -7.2724    -2.2033    -3.4513 H            1    LIG   0.0000
  33 H           -6.7434    -0.8426    -4.1830 H            1    LIG   0.0000
  34 H           -5.8057    -2.1795    -4.1688 H            1    LIG   0.0000
  35 H           -4.3012    -0.1172    -3.2621 H            1    LIG   0.0000
  36 H           -2.5824     1.1009    -2.0939 H            1    LIG   0.0000
@<TRIPOS>BOND
   1        1        2 1
   2        2        3 1
   3        3        4 1
   4        4        5 2
   5        5        6 1
   6        6        7 1
   7        7        8 1
   8        8        9 1
   9        9       10 ar
  10       10       11 ar
  11       11       12 ar
  12       12       13 ar
  13       13       14 ar
  14       14       15 ar
  15       15       16 1
  16       15       17 ar
  17       17       18 ar
  18       18       12 ar
  19       18       19 ar
  20       19        9 ar
  21        7       20 2
  22       20        4 1
  23        1       21 1
  24        1       22 1
  25        1       23 1
  26        2       24 1
  27        2       25 1
  28        3       26 1
  29        3       27 1
  30       10       28 1
  31       11       29 1
  32       13       30 1
  33       14       31 1
  34       16       32 1
  35       16       33 1
  36       16       34 1
  37       17       35 1
  38       19       36 1

@<TRIPOS>MOLECULE

  36   38
SMALL
USER_CHARGES
@<TRIPOS>ATOM
   1 C1           1.0986    -4.1721     0.0263 C.3          1    LIG   0.0000
   2 C2           0.6265    -2.7273     0.0184 C.3          1    LIG   0.0000
   3 C3           1.8311    -1.8009    -0.0147 C.3          1    LIG   0.0000
   4 C4           1.3597    -0.3580    -0.0225 C.2          1    LIG   0.0000
   5 N5           2.2686     0.5874    -0.0504 N.2          1    LIG   0.0000
   6 S6           1.4270     2.0136    -0.0680 S.3          1    LIG   0.0000
   7 C7          -0.1399     1.3504    -0.0422 C.2          1    LIG   0.0000
   8 O8          -1.3148     2.0136    -0.0433 O.3          1    LIG   0.0000
   9 C9          -2.3337     1.3914     0.5860 C.ar         1    LIG   0.0000
  10 C10         -2.1156     0.1503     1.1751 C.ar         1    LIG   0.0000
  11 C11         -3.1689    -0.4870     1.8230 C.ar         1    LIG   0.0000
  12 C12         -4.4206     0.1166     1.8746 C.ar         1    LIG   0.0000
  13 C13         -5.4681    -0.5280     2.5252 C.ar         1    LIG   0.0000
  14 C14         -6.7230     0.0699     2.5832 C.ar         1    LIG   0.0000
  15 C15         -6.9156     1.3113     1.9866 C.ar         1    LIG   0.0000
  16 C16         -8.2830     1.9711     2.0453 C.3          1    LIG   0.0000
  17 C17         -5.8769     1.9659     1.3340 C.ar         1    LIG   0.0000
  18 C18         -4.6267     1.3593     1.2821 C.ar         1    LIG   0.0000
  19 C19         -3.5809     2.0060     0.6319 C.ar         1    LIG   0.0000
  20 N20          0.0502     0.0621    -0.0137 N.2          1    LIG   0.0000
  21 H            0.3061    -4.7816     0.0481 H            1    LIG   0.0000
  22 H            1.6349    -4.3520    -0.7983 H            1    LIG   0.0000
  23 H            1.6653    -4.3332     0.8343 H            1    LIG   0.0000
  24 H            0.0598    -2.5662    -0.7895 H            1    LIG   0.0000
  25 H            0.0902    -2.5474     0.8431 H            1    LIG   0.0000
  26 H            2.3979    -1.9620     0.7933 H            1    LIG   0.0000
  27 H            2.3674    -1.9808    -0.8393 H            1    LIG   0.0000
  28 H           -1.2131    -0.2783     1.1333 H            1    LIG   0.0000
  29 H           -3.0259    -1.3791     2.2516 H            1    LIG   0.0000
  30 H           -5.3190    -1.4205     2.9509 H            1    LIG   0.0000
  31 H           -7.4795    -0.3887     3.0495 H            1    LIG   0.0000
  32 H           -8.9170     1.3804     2.5443 H            1    LIG   0.0000
  33 H           -8.2085     2.8513     2.5141 H            1    LIG   0.0000
  34 H           -8.6233     2.1160     1.1162 H            1    LIG   0.0000
  35 H           -6.0265     2.8586     0.9088 H            1    LIG   0.0000
  36 H           -3.7232     2.8986     0.2043 H            1    LIG   0.0000
@<TRIPOS>BOND
   1        1        2 1
   2        2        3 1
   3        3        4 1
   4        4        5 2
   5        5        6 1
   6        6        7 1
   7        7        8 1
   8        8        9 1
   9        9       10 ar
  10       10       11 ar
  11       11       12 ar
  12       12       13 ar
  13       13       14 ar
  14       14       15 ar
  15       15       16 1
  16       15       17 ar
  17       17       18 ar
  18       18       12 ar
  19       18       19 ar
  20       19        9 ar
  21        7       20 2
  22       20        4 1
  23        1       21 1
  24        1       22 1
  25        1       23 1
  26        2       24 1
  27        2       25 1
  28        3       26 1
  29        3       27 1
  30       10       28 1
  31       11       29 1
  32       13       30 1
  33       14       31 1
  34       16       32 1
  35       16       33 1
  36       16       34 1
  37       17       35 1
  38       19       36 1

@<TRIPOS>MOLECULE

  36   38
SMALL
USER_CHARGES
@<TRIPOS>ATOM
   1 C1           1.0986    -4.1721     0.0263 C.3          1    LIG   0.0000
   2 C2           0.6265    -2.7273     0.0184 C.3          1    LIG   0.0000
   3 C3           1.8311    -1.8009    -0.0147 C.3          1    LIG   0.0000
   4 C4           1.3597    -0.3580    -0.0225 C.2          1    LIG   0.0000
   5 N5           2.2686     0.5874    -0.0504 N.2          1    LIG   0.0000
   6 S6           1.4270     2.0136    -0.0680 S.3          1    LIG   0.0000
   7 C7          -0.1399     1.3504    -0.0422 C.2          1    LIG   0.0000
   8 O8          -1.3148     2.0136    -0.0433 O.3          1    LIG   0.0000
   9 C9          -1.8098     2.3206     1.1741 C.ar         1    LIG   0.0000
  10 C10         -2.6555     1.4202     1.8135 C.ar         1    LIG   0.0000
  11 C11         -3.1630     1.7409     3.0685 C.ar         1    LIG   0.0000
  12 C12         -2.8242     2.9493     3.6674 C.ar         1    LIG   0.0000
  13 C13         -3.3361     3.2614     4.9230 C.ar         1    LIG   0.0000
  14 C14         -3.0005     4.4675     5.5300 C.ar         1    LIG   0.0000
  15 C15         -2.1529     5.3508     4.8703 C.ar         1    LIG   0.0000
  16 C16         -1.7815     6.6701     5.5262 C.3          1    LIG   0.0000
  17 C17         -1.6343     5.0504     3.6156 C.ar         1    LIG   0.0000
  18 C18         -1.9763     3.8422     3.0181 C.ar         1    LIG   0.0000
  19 C19         -1.4626     3.5320     1.7633 C.ar         1    LIG   0.0000
  20 N20          0.0502     0.0621    -0.0137 N.2          1    LIG   0.0000
  21 H            0.3061    -4.7816     0.0481 H            1    LIG   0.0000
  22 H            1.6349    -4.3520    -0.7983 H            1    LIG   0.0000
  23 H            1.6653    -4.3332     0.8343 H            1    LIG   0.0000
  24 H            0.0598    -2.5662    -0.7895 H            1    LIG   0.0000
  25 H            0.0902    -2.5474     0.8431 H            1    LIG   0.0000
  26 H            2.3979    -1.9620     0.7933 H            1    LIG   0.0000
  27 H            2.3674    -1.9808    -0.8393 H            1    LIG   0.0000
  28 H           -2.8957     0.5533     1.3766 H            1    LIG   0.0000
  29 H           -3.7714     1.1024     3.5400 H            1    LIG   0.0000
  30 H           -3.9449     2.6192     5.3888 H            1    LIG   0.0000
  31 H           -3.3654     4.6970     6.4324 H            1    LIG   0.0000
  32 H           -2.2305     6.7374     6.4172 H            1    LIG   0.0000
  33 H           -0.7900     6.7140     5.6484 H            1    LIG   0.0000
  34 H           -2.0796     7.4270     4.9447 H            1    LIG   0.0000
  35 H           -1.0253     5.6928     3.1504 H            1    LIG   0.0000
  36 H           -0.8533     4.1697     1.2921 H            1    LIG   0.0000
@<TRIPOS>BOND
   1        1        2 1
   2        2        3 1
   3        3        4 1
   4        4        5 2
   5        5        6 1
   6        6        7 1
   7        7        8 1
   8        8        9 1
   9        9       10 ar
  10       10       11 ar
  11       11       12 ar
  12       12       13 ar
  13       13       14 ar
  14       14       15 ar
  15       15       16 1
  16       15       17 ar
  17       17       18 ar
  18       18       12 ar
  19       18       19 ar
  20       19        9 ar
  21        7       20 2
  22       20        4 1
  23        1       21 1
  24        1       22 1
  25        1       23 1
  26        2       24 1
  27        2       25 1
  28        3       26 1
  29        3       27 1
  30       10       28 1
  31       11       29 1
  32       13       30 1
  33       14       31 1
  34       16       32 1
  35       16       33 1
  36       16       34 1
  37       17       35 1
  38       19       36 1

@<TRIPOS>MOLECULE

  36   38
SMALL
USER_CHARGES
@<TRIPOS>ATOM
   1 C1           1.0986    -4.1721     0.0263 C.3          1    LIG   0.0000
   2 C2           0.6265    -2.7273     0.0184 C.3          1    LIG   0.0000
   3 C3           1.8311    -1.8009    -0.0147 C.3          1    LIG   0.0000
   4 C4           1.3597    -0.3580    -0.0225 C.2          1    LIG   0.0000
   5 N5           2.2686     0.5874    -0.0504 N.2          1    LIG   0.0000
   6 S6           1.4270     2.0136    -0.0680 S.3          1    LIG   0.0000
   7 C7          -0.1399     1.3504    -0.0422 C.2          1    LIG   0.0000
   8 O8          -1.3148     2.0136    -0.0433 O.3          1    LIG   0.0000
   9 C9          -1.8098     2.3206     1.1741 C.ar         1    LIG   0.0000
  10 C10         -1.4644     3.5314     1.7653 C.ar         1    LIG   0.0000
  11 C11         -1.9775     3.8437     3.0202 C.ar         1    LIG   0.0000
  12 C12         -2.8231     2.9496     3.6678 C.ar         1    LIG   0.0000
  13 C13         -3.3319     3.2706     4.9224 C.ar         1    LIG   0.0000
  14 C14         -4.1801     2.3825     5.5763 C.ar         1    LIG   0.0000
  15 C15         -4.5105     1.1784     4.9640 C.ar         1    LIG   0.0000
  16 C16         -5.4362     0.2029     5.6712 C.3          1    LIG   0.0000
  17 C17         -4.0092     0.8462     3.7103 C.ar         1    LIG   0.0000
  18 C18         -3.1623     1.7412     3.0658 C.ar         1    LIG   0.0000
  19 C19         -2.6556     1.4185     1.8112 C.ar         1    LIG   0.0000
  20 N20          0.0502     0.0621    -0.0137 N.2          1    LIG   0.0000
  21 H            0.3061    -4.7816     0.0481 H            1    LIG   0.0000
  22 H            1.6349    -4.3520    -0.7983 H            1    LIG   0.0000
  23 H            1.6653    -4.3332     0.8343 H            1    LIG   0.0000
  24 H            0.0598    -2.5662    -0.7895 H            1    LIG   0.0000
  25 H            0.0902    -2.5474     0.8431 H            1    LIG   0.0000
  26 H            2.3979    -1.9620     0.7933 H            1    LIG   0.0000
  27 H            2.3674    -1.9808    -0.8393 H            1    LIG   0.0000
  28 H           -0.8551     4.1693     1.2943 H            1    LIG   0.0000
  29 H           -1.7382     4.7111     3.4565 H            1    LIG   0.0000
  30 H           -3.0880     4.1391     5.3540 H            1    LIG   0.0000
  31 H           -4.5488     2.6080     6.4781 H            1    LIG   0.0000
  32 H           -5.7088     0.5832     6.5550 H            1    LIG   0.0000
  33 H           -6.2491     0.0482     5.1098 H            1    LIG   0.0000
  34 H           -4.9598    -0.6646     5.8143 H            1    LIG   0.0000
  35 H           -4.2537    -0.0223     3.2791 H            1    LIG   0.0000
  36 H           -2.8956     0.5517     1.3741 H            1    LIG   0.0000
@<TRIPOS>BOND
   1        1        2 1
   2        2        3 1
   3        3        4 1
   4        4        5 2
   5        5        6 1
   6        6        7 1
   7        7        8 1
   8        8        9 1
   9        9       10 ar
  10       10       11 ar
  11       11       12 ar
  12       12       13 ar
  13       13       14 ar
  14       14       15 ar
  15       15       16 1
  16       15       17 ar
  17       17       18 ar
  18       18       12 ar
  19       18       19 ar
  20       19        9 ar
  21        7       20 2
  22       20        4 1
  23        1       21 1
  24        1       22 1
  25        1       23 1
  26        2       24 1
  27        2       25 1
  28        3       26 1
  29        3       27 1
  30       10       28 1
  31       11       29 1
  32       13       30 1
  33       14       31 1
  34       16       32 1
  35       16       33 1
  36       16       34 1
  37       17       35 1
  38       19       36 1

@<TRIPOS>MOLECULE

  36   38
SMALL
USER_CHARGES
@<TRIPOS>ATOM
   1 C1           1.0986    -4.1721     0.0263 C.3          1    LIG   0.0000
   2 C2           0.6265    -2.7273     0.0184 C.3          1    LIG   0.0000
   3 C3           1.8311    -1.8009    -0.0147 C.3          1    LIG   0.0000
   4 C4           1.3597    -0.3580    -0.0225 C.2          1    LIG   0.0000
   5 N5           2.2686     0.5874    -0.0504 N.2          1    LIG   0.0000
   6 S6           1.4270     2.0136    -0.0680 S.3          1    LIG   0.0000
   7 C7          -0.1399     1.3504    -0.0422 C.2          1    LIG   0.0000
   8 O8          -1.3148     2.0136    -0.0433 O.3          1    LIG   0.0000
   9 C9          -1.8317     2.2777    -1.2616 C.ar         1    LIG   0.0000
  10 C10         -1.1450     1.8639    -2.3983 C.ar         1    LIG   0.0000
  11 C11         -1.6820     2.1382    -3.6520 C.ar         1    LIG   0.0000
  12 C12         -2.8900     2.8190    -3.7572 C.ar         1    LIG   0.0000
  13 C13         -3.4198     3.0885    -5.0152 C.ar         1    LIG   0.0000
  14 C14         -4.6288     3.7675    -5.1292 C.ar         1    LIG   0.0000
  15 C15         -5.2962     4.1705    -3.9776 C.ar         1    LIG   0.0000
  16 C16         -6.6170     4.9125    -4.0932 C.3          1    LIG   0.0000
  17 C17         -4.7776     3.9068    -2.7147 C.ar         1    LIG   0.0000
  18 C18         -3.5686     3.2275    -2.6124 C.ar         1    LIG   0.0000
  19 C19         -3.0414     2.9585    -1.3536 C.ar         1    LIG   0.0000
  20 N20          0.0502     0.0621    -0.0137 N.2          1    LIG   0.0000
  21 H            0.3061    -4.7816     0.0481 H            1    LIG   0.0000
  22 H            1.6349    -4.3520    -0.7983 H            1    LIG   0.0000
  23 H            1.6653    -4.3332     0.8343 H            1    LIG   0.0000
  24 H            0.0598    -2.5662    -0.7895 H            1    LIG   0.0000
  25 H            0.0902    -2.5474     0.8431 H            1    LIG   0.0000
  26 H            2.3979    -1.9620     0.7933 H            1    LIG   0.0000
  27 H            2.3674    -1.9808    -0.8393 H            1    LIG   0.0000
  28 H           -0.2763     1.3755    -2.3153 H            1    LIG   0.0000
  29 H           -1.1994     1.8457    -4.4776 H            1    LIG   0.0000
  30 H           -2.9318     2.7944    -5.8370 H            1    LIG   0.0000
  31 H           -5.0143     3.9638    -6.0308 H            1    LIG   0.0000
  32 H           -6.8534     5.0238    -5.0585 H            1    LIG   0.0000
  33 H           -7.3344     4.3898    -3.6325 H            1    LIG   0.0000
  34 H           -6.5326     5.8121    -3.6648 H            1    LIG   0.0000
  35 H           -5.2662     4.2009    -1.8932 H            1    LIG   0.0000
  36 H           -3.5243     3.2498    -0.5279 H            1    LIG   0.0000
@<TRIPOS>BOND
   1        1        2 1
   2        2        3 1
   3        3        4 1
   4        4        5 2
   5        5        6 1
   6        6        7 1
   7        7        8 1
   8        8        9 1
   9        9       10 ar
  10       10       11 ar
  11       11       12 ar
  12       12       13 ar
  13       13       14 ar
  14       14       15 ar
  15       15       16 1
  16       15       17 ar
  17       17       18 ar
  18       18       12 ar
  19       18       19 ar
  20       19        9 ar
  21        7       20 2
  22       20        4 1
  23        1       21 1
  24        1       22 1
  25        1       23 1
  26        2       24 1
  27        2       25 1
  28        3       26 1
  29        3       27 1
  30       10       28 1
  31       11       29 1
  32       13       30 1
  33       14       31 1
  34       16       32 1
  35       16       33 1
  36       16       34 1
  37       17       35 1
  38       19       36 1

@<TRIPOS>MOLECULE

  36   38
SMALL
USER_CHARGES
@<TRIPOS>ATOM
   1 C1           1.0986    -4.1721     0.0263 C.3          1    LIG   0.0000
   2 C2           0.6265    -2.7273     0.0184 C.3          1    LIG   0.0000
   3 C3           1.8311    -1.8009    -0.0147 C.3          1    LIG   0.0000
   4 C4           1.3597    -0.3580    -0.0225 C.2          1    LIG   0.0000
   5 N5           2.2686     0.5874    -0.0504 N.2          1    LIG   0.0000
   6 S6           1.4270     2.0136    -0.0680 S.3          1    LIG   0.0000
   7 C7          -0.1399     1.3504    -0.0422 C.2          1    LIG   0.0000
   8 O8          -1.3148     2.0136    -0.0433 O.3          1    LIG   0.0000
   9 C9          -1.8317     2.2777    -1.2616 C.ar         1    LIG   0.0000
  10 C10         -1.4970     3.4666    -1.9014 C.ar         1    LIG   0.0000
  11 C11         -2.0320     3.7344    -3.1574 C.ar         1    LIG   0.0000
  12 C12         -2.8907     2.8194    -3.7568 C.ar         1    LIG   0.0000
  13 C13         -3.4207     3.0954    -5.0134 C.ar         1    LIG   0.0000
  14 C14         -4.2790     2.1843    -5.6209 C.ar         1    LIG   0.0000
  15 C15         -4.5982     1.0028    -4.9606 C.ar         1    LIG   0.0000
  16 C16         -5.5348     0.0025    -5.6171 C.3          1    LIG   0.0000
  17 C17         -4.0748     0.7150    -3.7050 C.ar         1    LIG   0.0000
  18 C18         -3.2179     1.6326    -3.1070 C.ar         1    LIG   0.0000
  19 C19         -2.6886     1.3541    -1.8512 C.ar         1    LIG   0.0000
  20 N20          0.0502     0.0621    -0.0137 N.2          1    LIG   0.0000
  21 H            0.3061    -4.7816     0.0481 H            1    LIG   0.0000
  22 H            1.6349    -4.3520    -0.7983 H            1    LIG   0.0000
  23 H            1.6653    -4.3332     0.8343 H            1    LIG   0.0000
  24 H            0.0598    -2.5662    -0.7895 H            1    LIG   0.0000
  25 H            0.0902    -2.5474     0.8431 H            1    LIG   0.0000
  26 H            2.3979    -1.9620     0.7933 H            1    LIG   0.0000
  27 H            2.3674    -1.9808    -0.8393 H            1    LIG   0.0000
  28 H           -0.8795     4.1205    -1.4642 H            1    LIG   0.0000
  29 H           -1.7991     4.5848    -3.6292 H            1    LIG   0.0000
  30 H           -3.1848     3.9480    -5.4795 H            1    LIG   0.0000
  31 H           -4.6628     2.3774    -6.5239 H            1    LIG   0.0000
  32 H           -5.8232     0.3514    -6.5087 H            1    LIG   0.0000
  33 H           -5.0599    -0.8692    -5.7379 H            1    LIG   0.0000
  34 H           -6.3377    -0.1330    -5.0366 H            1    LIG   0.0000
  35 H           -4.3107    -0.1380    -3.2394 H            1    LIG   0.0000
  36 H           -2.9204     0.5032    -1.3797 H            1    LIG   0.0000
@<TRIPOS>BOND
   1        1        2 1
   2        2        3 1
   3        3        4 1
   4        4        5 2
   5        5        6 1
   6        6        7 1
   7        7        8 1
   8        8        9 1
   9        9       10 ar
  10       10       11 ar
  11       11       12 ar
  12       12       13 ar
  13       13       14 ar
  14       14       15 ar
  15       15       16 1
  16       15       17 ar
  17       17       18 ar
  18       18       12 ar
  19       18       19 ar
  20       19        9 ar
  21        7       20 2
  22       20        4 1
  23        1       21 1
  24        1       22 1
  25        1       23 1
  26        2       24 1
  27        2       25 1
  28        3       26 1
  29        3       27 1
  30       10       28 1
  31       11       29 1
  32       13       30 1
  33       14       31 1
  34       16       32 1
  35       16       33 1
  36       16       34 1
  37       17       35 1
  38       19       36 1

@<TRIPOS>MOLECULE

  36   38
SMALL
USER_CHARGES
@<TRIPOS>ATOM
   1 C1           1.0986    -4.1721     0.0263 C.3          1    LIG   0.0000
   2 C2           0.6265    -2.7273     0.0184 C.3          1    LIG   0.0000
   3 C3           1.8311    -1.8009    -0.0147 C.3          1    LIG   0.0000
   4 C4           1.3597    -0.3580    -0.0225 C.2          1    LIG   0.0000
   5 N5           2.2686     0.5874    -0.0504 N.2          1    LIG   0.0000
   6 S6           1.4270     2.0136    -0.0680 S.3          1    LIG   0.0000
   7 C7          -0.1399     1.3504    -0.0422 C.2          1    LIG   0.0000
   8 O8          -1.3148     2.0136    -0.0433 O.3          1    LIG   0.0000
   9 C9          -1.8317     2.2777    -1.2616 C.ar         1    LIG   0.0000
  10 C10         -2.6891     1.3559    -1.8533 C.ar         1    LIG   0.0000
  11 C11         -3.2198     1.6328    -3.1091 C.ar         1    LIG   0.0000
  12 C12         -2.8904     2.8182    -3.7572 C.ar         1    LIG   0.0000
  13 C13         -3.4263     3.0870    -5.0128 C.ar         1    LIG   0.0000
  14 C14         -3.1034     4.2716    -5.6671 C.ar         1    LIG   0.0000
  15 C15         -2.2441     5.1772    -5.0543 C.ar         1    LIG   0.0000
  16 C16         -1.8863     6.4732    -5.7621 C.3          1    LIG   0.0000
  17 C17         -1.7023     4.9206    -3.7997 C.ar         1    LIG   0.0000
  18 C18         -2.0319     3.7336    -3.1547 C.ar         1    LIG   0.0000
  19 C19         -1.4956     3.4675    -1.8991 C.ar         1    LIG   0.0000
  20 N20          0.0502     0.0621    -0.0137 N.2          1    LIG   0.0000
  21 H            0.3061    -4.7816     0.0481 H            1    LIG   0.0000
  22 H            1.6349    -4.3520    -0.7983 H            1    LIG   0.0000
  23 H            1.6653    -4.3332     0.8343 H            1    LIG   0.0000
  24 H            0.0598    -2.5662    -0.7895 H            1    LIG   0.0000
  25 H            0.0902    -2.5474     0.8431 H            1    LIG   0.0000
  26 H            2.3979    -1.9620     0.7933 H            1    LIG   0.0000
  27 H            2.3674    -1.9808    -0.8393 H            1    LIG   0.0000
  28 H           -2.9210     0.5050    -1.3819 H            1    LIG   0.0000
  29 H           -3.8381     0.9794    -3.5458 H            1    LIG   0.0000
  30 H           -4.0432     2.4291    -5.4447 H            1    LIG   0.0000
  31 H           -3.4857     4.4700    -6.5696 H            1    LIG   0.0000
  32 H           -2.3515     6.5094    -6.6465 H            1    LIG   0.0000
  33 H           -2.1747     7.2496    -5.2017 H            1    LIG   0.0000
  34 H           -0.8972     6.5135    -5.9038 H            1    LIG   0.0000
  35 H           -1.0858     5.5791    -3.3681 H            1    LIG   0.0000
  36 H           -0.8781     4.1213    -1.4617 H            1    LIG   0.0000
@<TRIPOS>BOND
   1        1        2 1
   2        2        3 1
   3        3        4 1
   4        4        5 2
   5        5        6 1
   6        6        7 1
   7        7        8 1
   8        8        9 1
   9        9       10 ar
  10       10       11 ar
  11       11       12 ar
  12       12       13 ar
  13       13       14 ar
  14       14       15 ar
  15       15       16 1
  16       15       17 ar
  17       17       18 ar
  18       18       12 ar
  19       18       19 ar
  20       19        9 ar
  21        7       20 2
  22       20        4 1
  23        1       21 1
  24        1       22 1
  25        1       23 1
  26        2       24 1
  27        2       25 1
  28        3       26 1
  29        3       27 1
  30       10       28 1
  31       11       29 1
  32       13       30 1
  33       14       31 1
  34       16       32 1
  35       16       33 1
  36       16       34 1
  37       17       35 1
  38       19       36 1

@<TRIPOS>MOLECULE

  36   38
SMALL
USER_CHARGES
@<TRIPOS>ATOM
   1 C1           1.0986    -4.1721     0.0263 C.3          1    LIG   0.0000
   2 C2           0.6265    -2.7273     0.0184 C.3          1    LIG   0.0000
   3 C3           1.8311    -1.8009    -0.0147 C.3          1    LIG   0.0000
   4 C4           1.3597    -0.3580    -0.0225 C.2          1    LIG   0.0000
   5 N5           2.2686     0.5874    -0.0504 N.2          1    LIG   0.0000
   6 S6           1.4270     2.0136    -0.0680 S.3          1    LIG   0.0000
   7 C7          -0.1399     1.3504    -0.0422 C.2          1    LIG   0.0000
   8 O8          -1.3148     2.0136    -0.0433 O.3          1    LIG   0.0000
   9 C9          -1.2221     3.3597    -0.0678 C.ar         1    LIG   0.0000
  10 C10         -1.1640     4.0614     1.1318 C.ar         1    LIG   0.0000
  11 C11         -1.0681     5.4490     1.1015 C.ar         1    LIG   0.0000
  12 C12         -1.0327     6.1170    -0.1176 C.ar         1    LIG   0.0000
  13 C13         -0.9362     7.5049    -0.1383 C.ar         1    LIG   0.0000
  14 C14         -0.8982     8.1808    -1.3538 C.ar         1    LIG   0.0000
  15 C15         -0.9576     7.4564    -2.5394 C.ar         1    LIG   0.0000
  16 C16         -0.9167     8.1868    -3.8711 C.3          1    LIG   0.0000
  17 C17         -1.0536     6.0692    -2.5322 C.ar         1    LIG   0.0000
  18 C18         -1.0908     5.4039    -1.3117 C.ar         1    LIG   0.0000
  19 C19         -1.1864     4.0163    -1.2936 C.ar         1    LIG   0.0000
  20 N20          0.0502     0.0621    -0.0137 N.2          1    LIG   0.0000
  21 H            0.3061    -4.7816     0.0481 H            1    LIG   0.0000
  22 H            1.6349    -4.3520    -0.7983 H            1    LIG   0.0000
  23 H            1.6653    -4.3332     0.8343 H            1    LIG   0.0000
  24 H            0.0598    -2.5662    -0.7895 H            1    LIG   0.0000
  25 H            0.0902    -2.5474     0.8431 H            1    LIG   0.0000
  26 H            2.3979    -1.9620     0.7933 H            1    LIG   0.0000
  27 H            2.3674    -1.9808    -0.8393 H            1    LIG   0.0000
  28 H           -1.1909     3.5747     2.0050 H            1    LIG   0.0000
  29 H           -1.0246     5.9660     1.9564 H            1    LIG   0.0000
  30 H           -0.8941     8.0163     0.7200 H            1    LIG   0.0000
  31 H           -0.8288     9.1781    -1.3746 H            1    LIG   0.0000
  32 H           -0.8473     9.1712    -3.7094 H            1    LIG   0.0000
  33 H           -0.1234     7.8786    -4.3961 H            1    LIG   0.0000
  34 H           -1.7524     7.9914    -4.3843 H            1    LIG   0.0000
  35 H           -1.0952     5.5584    -3.3909 H            1    LIG   0.0000
  36 H           -1.2287     3.4990    -2.1483 H            1    LIG   0.0000
@<TRIPOS>BOND
   1        1        2 1
   2        2        3 1
   3        3        4 1
   4        4        5 2
   5        5        6 1
   6        6        7 1
   7        7        8 1
   8        8        9 1
   9        9       10 ar
  10       10       11 ar
  11       11       12 ar
  12       12       13 ar
  13       13       14 ar
  14       14       15 ar
  15       15       16 1
  16       15       17 ar
  17       17       18 ar
  18       18       12 ar
  19       18       19 ar
  20       19        9 ar
  21        7       20 2
  22       20        4 1
  23        1       21 1
  24        1       22 1
  25        1       23 1
  26        2       24 1
  27        2       25 1
  28        3       26 1
  29        3       27 1
  30       10       28 1
  31       11       29 1
  32       13       30 1
  33       14       31 1
  34       16       32 1
  35       16       33 1
  36       16       34 1
  37       17       35 1
  38       19       36 1

@<TRIPOS>MOLECULE

  36   38
SMALL
USER_CHARGES
@<TRIPOS>ATOM
   1 C1           1.0986    -4.1721     0.0263 C.3          1    LIG   0.0000
   2 C2           0.6265    -2.7273     0.0184 C.3          1    LIG   0.0000
   3 C3           1.8311    -1.8009    -0.0147 C.3          1    LIG   0.0000
   4 C4           1.3597    -0.3580    -0.0225 C.2          1    LIG   0.0000
   5 N5           2.2686     0.5874    -0.0504 N.2          1    LIG   0.0000
   6 S6           1.4270     2.0136    -0.0680 S.3          1    LIG   0.0000
   7 C7          -0.1399     1.3504    -0.0422 C.2          1    LIG   0.0000
   8 O8          -1.3148     2.0136    -0.0433 O.3          1    LIG   0.0000
   9 C9          -1.2221     3.3597    -0.0678 C.ar         1    LIG   0.0000
  10 C10         -1.1865     4.0188    -1.2922 C.ar         1    LIG   0.0000
  11 C11         -1.0913     5.4066    -1.3125 C.ar         1    LIG   0.0000
  12 C12         -1.0318     6.1169    -0.1184 C.ar         1    LIG   0.0000
  13 C13         -0.9371     7.5048    -0.1483 C.ar         1    LIG   0.0000
  14 C14         -0.8791     8.2231     1.0418 C.ar         1    LIG   0.0000
  15 C15         -0.9166     7.5409     2.2530 C.ar         1    LIG   0.0000
  16 C16         -0.8537     8.3178     3.5573 C.3          1    LIG   0.0000
  17 C17         -1.0116     6.1543     2.2964 C.ar         1    LIG   0.0000
  18 C18         -1.0690     5.4464     1.1009 C.ar         1    LIG   0.0000
  19 C19         -1.1645     4.0590     1.1333 C.ar         1    LIG   0.0000
  20 N20          0.0502     0.0621    -0.0137 N.2          1    LIG   0.0000
  21 H            0.3061    -4.7816     0.0481 H            1    LIG   0.0000
  22 H            1.6349    -4.3520    -0.7983 H            1    LIG   0.0000
  23 H            1.6653    -4.3332     0.8343 H            1    LIG   0.0000
  24 H            0.0598    -2.5662    -0.7895 H            1    LIG   0.0000
  25 H            0.0902    -2.5474     0.8431 H            1    LIG   0.0000
  26 H            2.3979    -1.9620     0.7933 H            1    LIG   0.0000
  27 H            2.3674    -1.9808    -0.8393 H            1    LIG   0.0000
  28 H           -1.2288     3.5016    -2.1471 H            1    LIG   0.0000
  29 H           -1.0656     5.8934    -2.1856 H            1    LIG   0.0000
  30 H           -0.9108     7.9856    -1.0247 H            1    LIG   0.0000
  31 H           -0.8111     9.2207     1.0263 H            1    LIG   0.0000
  32 H           -0.7879     9.2959     3.3598 H            1    LIG   0.0000
  33 H           -1.6805     8.1404     4.0911 H            1    LIG   0.0000
  34 H           -0.0514     8.0284     4.0793 H            1    LIG   0.0000
  35 H           -1.0383     5.6740     3.1731 H            1    LIG   0.0000
  36 H           -1.1913     3.5721     2.0063 H            1    LIG   0.0000
@<TRIPOS>BOND
   1        1        2 1
   2        2        3 1
   3        3        4 1
   4        4        5 2
   5        5        6 1
   6        6        7 1
   7        7        8 1
   8        8        9 1
   9        9       10 ar
  10       10       11 ar
  11       11       12 ar
  12       12       13 ar
  13       13       14 ar
  14       14       15 ar
  15       15       16 1
  16       15       17 ar
  17       17       18 ar
  18       18       12 ar
  19       18       19 ar
  20       19        9 ar
  21        7       20 2
  22       20        4 1
  23        1       21 1
  24        1       22 1
  25        1       23 1
  26        2       24 1
  27        2       25 1
  28        3       26 1
  29        3       27 1
  30       10       28 1
  31       11       29 1
  32       13       30 1
  33       14       31 1
  34       16       32 1
  35       16       33 1
  36       16       34 1
  37       17       35 1
  38       19       36 1

@<TRIPOS>MOLECULE

  36   38
SMALL
USER_CHARGES
@<TRIPOS>ATOM
   1 C1           1.0986    -4.1721     0.0263 C.3          1    LIG   0.0000
   2 C2           0.6265    -2.7273     0.0184 C.3          1    LIG   0.0000
   3 C3           1.8311    -1.8009    -0.0147 C.3          1    LIG   0.0000
   4 C4           1.3597    -0.3580    -0.0225 C.2          1    LIG   0.0000
   5 N5           2.2686     0.5874    -0.0504 N.2          1    LIG   0.0000
   6 S6           1.4270     2.0136    -0.0680 S.3          1    LIG   0.0000
   7 C7          -0.1399     1.3504    -0.0422 C.2          1    LIG   0.0000
   8 O8          -1.3148     2.0136    -0.0433 O.3          1    LIG   0.0000
   9 C9          -1.2968     3.2283     0.5443 C.ar         1    LIG   0.0000
  10 C10         -0.1103     3.7027     1.0939 C.ar         1    LIG   0.0000
  11 C11         -0.0966     4.9558     1.6983 C.ar         1    LIG   0.0000
  12 C12         -1.2597     5.7162     1.7485 C.ar         1    LIG   0.0000
  13 C13         -1.2365     6.9685     2.3545 C.ar         1    LIG   0.0000
  14 C14         -2.3953     7.7366     2.4071 C.ar         1    LIG   0.0000
  15 C15         -3.5689     7.2401     1.8502 C.ar         1    LIG   0.0000
  16 C16         -4.8389     8.0725     1.9035 C.3          1    LIG   0.0000
  17 C17         -3.6051     5.9905     1.2414 C.ar         1    LIG   0.0000
  18 C18         -2.4411     5.2313     1.1943 C.ar         1    LIG   0.0000
  19 C19         -2.4665     3.9801     0.5872 C.ar         1    LIG   0.0000
  20 N20          0.0502     0.0621    -0.0137 N.2          1    LIG   0.0000
  21 H            0.3061    -4.7816     0.0481 H            1    LIG   0.0000
  22 H            1.6349    -4.3520    -0.7983 H            1    LIG   0.0000
  23 H            1.6653    -4.3332     0.8343 H            1    LIG   0.0000
  24 H            0.0598    -2.5662    -0.7895 H            1    LIG   0.0000
  25 H            0.0902    -2.5474     0.8431 H            1    LIG   0.0000
  26 H            2.3979    -1.9620     0.7933 H            1    LIG   0.0000
  27 H            2.3674    -1.9808    -0.8393 H            1    LIG   0.0000
  28 H            0.7222     3.1501     1.0551 H            1    LIG   0.0000
  29 H            0.7497     5.3095     2.0966 H            1    LIG   0.0000
  30 H           -0.3873     7.3163     2.7519 H            1    LIG   0.0000
  31 H           -2.3845     8.6374     2.8413 H            1    LIG   0.0000
  32 H           -4.6513     8.9373     2.3692 H            1    LIG   0.0000
  33 H           -5.1559     8.2568     0.9732 H            1    LIG   0.0000
  34 H           -5.5453     7.5712     2.4032 H            1    LIG   0.0000
  35 H           -4.4545     5.6435     0.8437 H            1    LIG   0.0000
  36 H           -3.3124     3.6265     0.1877 H            1    LIG   0.0000
@<TRIPOS>BOND
   1        1        2 1
   2        2        3 1
   3        3        4 1
   4        4        5 2
   5        5        6 1
   6        6        7 1
   7        7        8 1
   8        8        9 1
   9        9       10 ar
  10       10       11 ar
  11       11       12 ar
  12       12       13 ar
  13       13       14 ar
  14       14       15 ar
  15       15       16 1
  16       15       17 ar
  17       17       18 ar
  18       18       12 ar
  19       18       19 ar
  20       19        9 ar
  21        7       20 2
  22       20        4 1
  23        1       21 1
  24        1       22 1
  25        1       23 1
  26        2       24 1
  27        2       25 1
  28        3       26 1
  29        3       27 1
  30       10       28 1
  31       11       29 1
  32       13       30 1
  33       14       31 1
  34       16       32 1
  35       16       33 1
  36       16       34 1
  37       17       35 1
  38       19       36 1

@<TRIPOS>MOLECULE

  36   38
SMALL
USER_CHARGES
@<TRIPOS>ATOM
   1 C1           3.8225    -3.2824    -0.0347 C.3          1    LIG   0.0000
   2 C2           3.3504    -1.8376    -0.0426 C.3          1    LIG   0.0000
   3 C3           1.8311    -1.8009    -0.0147 C.3          1    LIG   0.0000
   4 C4           1.3597    -0.3580    -0.0225 C.2          1    LIG   0.0000
   5 N5           2.2686     0.5874    -0.0504 N.2          1    LIG   0.0000
   6 S6           1.4270     2.0136    -0.0680 S.3          1    LIG   0.0000
   7 C7          -0.1399     1.3504    -0.0422 C.2          1    LIG   0.0000
   8 O8          -1.3148     2.0136    -0.0433 O.3          1    LIG   0.0000
   9 C9          -1.3078     3.2069    -0.6735 C.ar         1    LIG   0.0000
  10 C10         -2.4768     3.9591    -0.7228 C.ar         1    LIG   0.0000
  11 C11         -2.4646     5.1889    -1.3733 C.ar         1    LIG   0.0000
  12 C12         -1.2940     5.6510    -1.9647 C.ar         1    LIG   0.0000
  13 C13         -1.2910     6.8823    -2.6126 C.ar         1    LIG   0.0000
  14 C14         -0.1234     7.3529    -3.2051 C.ar         1    LIG   0.0000
  15 C15          1.0324     6.5821    -3.1420 C.ar         1    LIG   0.0000
  16 C16          2.3116     7.0887    -3.7865 C.3          1    LIG   0.0000
  17 C17          1.0426     5.3503    -2.4970 C.ar         1    LIG   0.0000
  18 C18         -0.1299     4.8897    -1.9082 C.ar         1    LIG   0.0000
  19 C19         -0.1302     3.6588    -1.2602 C.ar         1    LIG   0.0000
  20 N20          0.0502     0.0621    -0.0137 N.2          1    LIG   0.0000
  21 H            4.8220    -3.3066    -0.0530 H            1    LIG   0.0000
  22 H            3.4932    -3.7362     0.7934 H            1    LIG   0.0000
  23 H            3.4628    -3.7550    -0.8392 H            1    LIG   0.0000
  24 H            3.7101    -1.3650     0.7620 H            1    LIG   0.0000
  25 H            3.6797    -1.3839    -0.8706 H            1    LIG   0.0000
  26 H            1.4714    -2.2735    -0.8192 H            1    LIG   0.0000
  27 H            1.5018    -2.2546     0.8134 H            1    LIG   0.0000
  28 H           -3.3154     3.6203    -0.2961 H            1    LIG   0.0000
  29 H           -3.2977     5.7405    -1.4155 H            1    LIG   0.0000
  30 H           -2.1275     7.4287    -2.6524 H            1    LIG   0.0000
  31 H           -0.1154     8.2371    -3.6721 H            1    LIG   0.0000
  32 H            2.1430     7.9807    -4.2059 H            1    LIG   0.0000
  33 H            3.0235     7.1771    -3.0898 H            1    LIG   0.0000
  34 H            2.6103     6.4416    -4.4880 H            1    LIG   0.0000
  35 H            1.8795     4.8045    -2.4572 H            1    LIG   0.0000
  36 H            0.7029     3.1075    -1.2167 H            1    LIG   0.0000
@<TRIPOS>BOND
   1        1        2 1
   2        2        3 1
   3        3        4 1
   4        4        5 2
   5        5        6 1
   6        6        7 1
   7        7        8 1
   8        8        9 1
   9        9       10 ar
  10       10       11 ar
  11       11       12 ar
  12       12       13 ar
  13       13       14 ar
  14       14       15 ar
  15       15       16 1
  16       15       17 ar
  17       17       18 ar
  18       18       12 ar
  19       18       19 ar
  20       19        9 ar
  21        7       20 2
  22       20        4 1
  23        1       21 1
  24        1       22 1
  25        1       23 1
  26        2       24 1
  27        2       25 1
  28        3       26 1
  29        3       27 1
  30       10       28 1
  31       11       29 1
  32       13       30 1
  33       14       31 1
  34       16       32 1
  35       16       33 1
  36       16       34 1
  37       17       35 1
  38       19       36 1

@<TRIPOS>MOLECULE

  36   38
SMALL
USER_CHARGES
@<TRIPOS>ATOM
   1 C1           2.4339    -3.7438    -1.4369 C.3          1    LIG   0.0000
   2 C2           1.9618    -2.2990    -1.4448 C.3          1    LIG   0.0000
   3 C3           1.8311    -1.8009    -0.0147 C.3          1    LIG   0.0000
   4 C4           1.3597    -0.3580    -0.0225 C.2          1    LIG   0.0000
   5 N5           2.2686     0.5874    -0.0504 N.2          1    LIG   0.0000
   6 S6           1.4270     2.0136    -0.0680 S.3          1    LIG   0.0000
   7 C7          -0.1399     1.3504    -0.0422 C.2          1    LIG   0.0000
   8 O8          -1.3148     2.0136    -0.0433 O.3          1    LIG   0.0000
   9 C9          -1.8098     2.3206     1.1741 C.ar         1    LIG   0.0000
  10 C10         -3.0177     3.0042     1.2667 C.ar         1    LIG   0.0000
  11 C11         -3.5242     3.3181     2.5239 C.ar         1    LIG   0.0000
  12 C12         -2.8238     2.9501     3.6674 C.ar         1    LIG   0.0000
  13 C13         -3.3382     3.2678     4.9206 C.ar         1    LIG   0.0000
  14 C14         -2.6447     2.9014     6.0697 C.ar         1    LIG   0.0000
  15 C15         -1.4392     2.2184     5.9505 C.ar         1    LIG   0.0000
  16 C16         -0.6755     1.8147     7.2004 C.3          1    LIG   0.0000
  17 C17         -0.9147     1.8945     4.7041 C.ar         1    LIG   0.0000
  18 C18         -1.6162     2.2655     3.5622 C.ar         1    LIG   0.0000
  19 C19         -1.1004     1.9459     2.3105 C.ar         1    LIG   0.0000
  20 N20          0.0502     0.0621    -0.0137 N.2          1    LIG   0.0000
  21 H            2.5198    -4.0715    -2.3778 H            1    LIG   0.0000
  22 H            3.3221    -3.8018    -0.9813 H            1    LIG   0.0000
  23 H            1.7702    -4.3087    -0.9465 H            1    LIG   0.0000
  24 H            2.6254    -1.7341    -1.9352 H            1    LIG   0.0000
  25 H            1.0735    -2.2410    -1.9004 H            1    LIG   0.0000
  26 H            1.1674    -2.3657     0.4757 H            1    LIG   0.0000
  27 H            2.7194    -1.8588     0.4410 H            1    LIG   0.0000
  28 H           -3.5157     3.2666     0.4402 H            1    LIG   0.0000
  29 H           -4.3919     3.8085     2.6052 H            1    LIG   0.0000
  30 H           -4.2059     3.7593     4.9952 H            1    LIG   0.0000
  31 H           -3.0097     3.1271     6.9729 H            1    LIG   0.0000
  32 H           -1.1783     2.1167     8.0104 H            1    LIG   0.0000
  33 H           -0.5743     0.8201     7.2225 H            1    LIG   0.0000
  34 H            0.2288     2.2416     7.1910 H            1    LIG   0.0000
  35 H           -0.0472     1.4028     4.6301 H            1    LIG   0.0000
  36 H           -0.2333     1.4546     2.2289 H            1    LIG   0.0000
@<TRIPOS>BOND
   1        1        2 1
   2        2        3 1
   3        3        4 1
   4        4        5 2
   5        5        6 1
   6        6        7 1
   7        7        8 1
   8        8        9 1
   9        9       10 ar
  10       10       11 ar
  11       11       12 ar
  12       12       13 ar
  13       13       14 ar
  14       14       15 ar
  15       15       16 1
  16       15       17 ar
  17       17       18 ar
  18       18       12 ar
  19       18       19 ar
  20       19        9 ar
  21        7       20 2
  22       20        4 1
  23        1       21 1
  24        1       22 1
  25        1       23 1
  26        2       24 1
  27        2       25 1
  28        3       26 1
  29        3       27 1
  30       10       28 1
  31       11       29 1
  32       13       30 1
  33       14       31 1
  34       16       32 1
  35       16       33 1
  36       16       34 1
  37       17       35 1
  38       19       36 1

@<TRIPOS>MOLECULE

  36   38
SMALL
USER_CHARGES
@<TRIPOS>ATOM
   1 C1           2.4872    -3.7108     1.4285 C.3          1    LIG   0.0000
   2 C2           2.0152    -2.2659     1.4207 C.3          1    LIG   0.0000
   3 C3           1.8311    -1.8009    -0.0147 C.3          1    LIG   0.0000
   4 C4           1.3597    -0.3580    -0.0225 C.2          1    LIG   0.0000
   5 N5           2.2686     0.5874    -0.0504 N.2          1    LIG   0.0000
   6 S6           1.4270     2.0136    -0.0680 S.3          1    LIG   0.0000
   7 C7          -0.1399     1.3504    -0.0422 C.2          1    LIG   0.0000
   8 O8          -1.3148     2.0136    -0.0433 O.3          1    LIG   0.0000
   9 C9          -2.3337     1.3914     0.5860 C.ar         1    LIG   0.0000
  10 C10         -3.5819     2.0036     0.6331 C.ar         1    LIG   0.0000
  11 C11         -4.6293     1.3582     1.2826 C.ar         1    LIG   0.0000
  12 C12         -4.4209     0.1176     1.8753 C.ar         1    LIG   0.0000
  13 C13         -5.4744    -0.5207     2.5222 C.ar         1    LIG   0.0000
  14 C14         -5.2748    -1.7630     3.1161 C.ar         1    LIG   0.0000
  15 C15         -4.0176    -2.3542     3.0551 C.ar         1    LIG   0.0000
  16 C16         -3.7911    -3.7107     3.7010 C.3          1    LIG   0.0000
  17 C17         -2.9568    -1.7269     2.4111 C.ar         1    LIG   0.0000
  18 C18         -3.1675    -0.4856     1.8210 C.ar         1    LIG   0.0000
  19 C19         -2.1130     0.1502     1.1740 C.ar         1    LIG   0.0000
  20 N20          0.0502     0.0621    -0.0137 N.2          1    LIG   0.0000
  21 H            2.6083    -4.0167     2.3729 H            1    LIG   0.0000
  22 H            1.8060    -4.2865     0.9764 H            1    LIG   0.0000
  23 H            3.3580    -3.7796     0.9416 H            1    LIG   0.0000
  24 H            1.1444    -2.1971     1.9076 H            1    LIG   0.0000
  25 H            2.6964    -1.6902     1.8729 H            1    LIG   0.0000
  26 H            2.7018    -1.8697    -0.5016 H            1    LIG   0.0000
  27 H            1.1499    -2.3766    -0.4669 H            1    LIG   0.0000
  28 H           -3.7245     2.8963     0.2055 H            1    LIG   0.0000
  29 H           -5.5321     1.7864     1.3233 H            1    LIG   0.0000
  30 H           -6.3746    -0.0868     2.5604 H            1    LIG   0.0000
  31 H           -6.0284    -2.2264     3.5823 H            1    LIG   0.0000
  32 H           -4.6425    -4.0269     4.1195 H            1    LIG   0.0000
  33 H           -3.4980    -4.3664     3.0053 H            1    LIG   0.0000
  34 H           -3.0838    -3.6315     4.4034 H            1    LIG   0.0000
  35 H           -2.0570    -2.1615     2.3729 H            1    LIG   0.0000
  36 H           -1.2104    -0.2783     1.1322 H            1    LIG   0.0000
@<TRIPOS>BOND
   1        1        2 1
   2        2        3 1
   3        3        4 1
   4        4        5 2
   5        5        6 1
   6        6        7 1
   7        7        8 1
   8        8        9 1
   9        9       10 ar
  10       10       11 ar
  11       11       12 ar
  12       12       13 ar
  13       13       14 ar
  14       14       15 ar
  15       15       16 1
  16       15       17 ar
  17       17       18 ar
  18       18       12 ar
  19       18       19 ar
  20       19        9 ar
  21        7       20 2
  22       20        4 1
  23        1       21 1
  24        1       22 1
  25        1       23 1
  26        2       24 1
  27        2       25 1
  28        3       26 1
  29        3       27 1
  30       10       28 1
  31       11       29 1
  32       13       30 1
  33       14       31 1
  34       16       32 1
  35       16       33 1
  36       16       34 1
  37       17       35 1
  38       19       36 1

