@<TRIPOS>MOLECULE
*****
 36 38 0 0 0
SMALL
USER_CHARGES

@<TRIPOS>ATOM
      1 C1          1.0986   -4.1721    0.0263 C.3     1  LIG1        0.0000
      2 C2          0.6265   -2.7273    0.0184 C.3     1  LIG1        0.0000
      3 C3          1.8311   -1.8009   -0.0147 C.3     1  LIG1        0.0000
      4 C4          1.3597   -0.3580   -0.0225 C.2     1  LIG1        0.0000
      5 N5          2.2686    0.5874   -0.0504 N.2     1  LIG1        0.0000
      6 S6          1.4270    2.0136   -0.0680 S.3     1  LIG1        0.0000
      7 C7         -0.1399    1.3504   -0.0422 C.2     1  LIG1        0.0000
      8 O8         -1.3148    2.0136   -0.0433 O.3     1  LIG1        0.0000
      9 C9         -2.4194    1.2387   -0.0197 C.ar    1  LIG1        0.0000
     10 C10        -2.9670    0.8685    1.2043 C.ar    1  LIG1        0.0000
     11 C11        -4.1060    0.0699    1.2236 C.ar    1  LIG1        0.0000
     12 C12        -4.6817   -0.3490    0.0290 C.ar    1  LIG1        0.0000
     13 C13        -5.8210   -1.1472    0.0580 C.ar    1  LIG1        0.0000
     14 C14        -6.4044   -1.5690   -1.1326 C.ar    1  LIG1        0.0000
     15 C15        -5.8380   -1.1853   -2.3434 C.ar    1  LIG1        0.0000
     16 C16        -6.4688   -1.6417   -3.6481 C.3     1  LIG1        0.0000
     17 C17        -4.6999   -0.3875   -2.3858 C.ar    1  LIG1        0.0000
     18 C18        -4.1251    0.0283   -1.1898 C.ar    1  LIG1        0.0000
     19 C19        -2.9867    0.8270   -1.2213 C.ar    1  LIG1        0.0000
     20 N20         0.0502    0.0621   -0.0137 N.2     1  LIG1        0.0000
     21 H           0.3061   -4.7816    0.0481 H       1  LIG1        0.0000
     22 H           1.6349   -4.3520   -0.7983 H       1  LIG1        0.0000
     23 H           1.6653   -4.3332    0.8343 H       1  LIG1        0.0000
     24 H           0.0598   -2.5662   -0.7895 H       1  LIG1        0.0000
     25 H           0.0902   -2.5474    0.8431 H       1  LIG1        0.0000
     26 H           2.3979   -1.9620    0.7933 H       1  LIG1        0.0000
     27 H           2.3674   -1.9808   -0.8393 H       1  LIG1        0.0000
     28 H          -2.5473    1.1727    2.0595 H       1  LIG1        0.0000
     29 H          -4.5107   -0.2029    2.0964 H       1  LIG1        0.0000
     30 H          -6.2204   -1.4175    0.9340 H       1  LIG1        0.0000
     31 H          -7.2233   -2.1427   -1.1178 H       1  LIG1        0.0000
     32 H          -7.2724   -2.2033   -3.4513 H       1  LIG1        0.0000
     33 H          -6.7434   -0.8426   -4.1830 H       1  LIG1        0.0000
     34 H          -5.8057   -2.1795   -4.1688 H       1  LIG1        0.0000
     35 H          -4.3012   -0.1172   -3.2621 H       1  LIG1        0.0000
     36 H          -2.5824    1.1009   -2.0939 H       1  LIG1        0.0000
@<TRIPOS>BOND
     1     1     2    1
     2     2     3    1
     3     3     4    1
     4     4     5    2
     5     5     6    1
     6     6     7    1
     7     7     8    1
     8     8     9    1
     9     9    10   ar
    10    10    11   ar
    11    11    12   ar
    12    12    13   ar
    13    13    14   ar
    14    14    15   ar
    15    15    16    1
    16    15    17   ar
    17    17    18   ar
    18    18    12   ar
    19    18    19   ar
    20    19     9   ar
    21     7    20    2
    22    20     4    1
    23     1    21    1
    24     1    22    1
    25     1    23    1
    26     2    24    1
    27     2    25    1
    28     3    26    1
    29     3    27    1
    30    10    28    1
    31    11    29    1
    32    13    30    1
    33    14    31    1
    34    16    32    1
    35    16    33    1
    36    16    34    1
    37    17    35    1
    38    19    36    1
