@<TRIPOS>MOLECULE
*****
 36 38 0 0 0
SMALL
USER_CHARGES

@<TRIPOS>ATOM
      1 C1          1.0986   -4.1721    0.0263 C.3     1  LIG1        0.0000
      2 C2          0.6265   -2.7273    0.0184 C.3     1  LIG1        0.0000
      3 C3          1.8311   -1.8009   -0.0147 C.3     1  LIG1        0.0000
      4 C4          1.3597   -0.3580   -0.0225 C.2     1  LIG1        0.0000
      5 N5          2.2686    0.5874   -0.0504 N.2     1  LIG1        0.0000
      6 S6          1.4270    2.0136   -0.0680 S.3     1  LIG1        0.0000
      7 C7         -0.1399    1.3504   -0.0422 C.2     1  LIG1        0.0000
      8 O8         -1.3148    2.0136   -0.0433 O.3     1  LIG1        0.0000
      9 C9         -1.2221    3.3597   -0.0678 C.ar    1  LIG1        0.0000
     10 C10        -1.1865    4.0188   -1.2922 C.ar    1  LIG1        0.0000
     11 C11        -1.0913    5.4066   -1.3125 C.ar    1  LIG1        0.0000
     12 C12        -1.0318    6.1169   -0.1184 C.ar    1  LIG1        0.0000
     13 C13        -0.9371    7.5048   -0.1483 C.ar    1  LIG1        0.0000
     14 C14        -0.8791    8.2231    1.0418 C.ar    1  LIG1        0.0000
     15 C15        -0.9166    7.5409    2.2530 C.ar    1  LIG1        0.0000
     16 C16        -0.8537    8.3178    3.5573 C.3     1  LIG1        0.0000
     17 C17        -1.0116    6.1543    2.2964 C.ar    1  LIG1        0.0000
     18 C18        -1.0690    5.4464    1.1009 C.ar    1  LIG1        0.0000
     19 C19        -1.1645    4.0590    1.1333 C.ar    1  LIG1        0.0000
     20 N20         0.0502    0.0621   -0.0137 N.2     1  LIG1        0.0000
     21 H           0.3061   -4.7816    0.0481 H       1  LIG1        0.0000
     22 H           1.6349   -4.3520   -0.7983 H       1  LIG1        0.0000
     23 H           1.6653   -4.3332    0.8343 H       1  LIG1        0.0000
     24 H           0.0598   -2.5662   -0.7895 H       1  LIG1        0.0000
     25 H           0.0902   -2.5474    0.8431 H       1  LIG1        0.0000
     26 H           2.3979   -1.9620    0.7933 H       1  LIG1        0.0000
     27 H           2.3674   -1.9808   -0.8393 H       1  LIG1        0.0000
     28 H          -1.2288    3.5016   -2.1471 H       1  LIG1        0.0000
     29 H          -1.0656    5.8934   -2.1856 H       1  LIG1        0.0000
     30 H          -0.9108    7.9856   -1.0247 H       1  LIG1        0.0000
     31 H          -0.8111    9.2207    1.0263 H       1  LIG1        0.0000
     32 H          -0.7879    9.2959    3.3598 H       1  LIG1        0.0000
     33 H          -1.6805    8.1404    4.0911 H       1  LIG1        0.0000
     34 H          -0.0514    8.0284    4.0793 H       1  LIG1        0.0000
     35 H          -1.0383    5.6740    3.1731 H       1  LIG1        0.0000
     36 H          -1.1913    3.5721    2.0063 H       1  LIG1        0.0000
@<TRIPOS>BOND
     1     1     2    1
     2     2     3    1
     3     3     4    1
     4     4     5    2
     5     5     6    1
     6     6     7    1
     7     7     8    1
     8     8     9    1
     9     9    10   ar
    10    10    11   ar
    11    11    12   ar
    12    12    13   ar
    13    13    14   ar
    14    14    15   ar
    15    15    16    1
    16    15    17   ar
    17    17    18   ar
    18    18    12   ar
    19    18    19   ar
    20    19     9   ar
    21     7    20    2
    22    20     4    1
    23     1    21    1
    24     1    22    1
    25     1    23    1
    26     2    24    1
    27     2    25    1
    28     3    26    1
    29     3    27    1
    30    10    28    1
    31    11    29    1
    32    13    30    1
    33    14    31    1
    34    16    32    1
    35    16    33    1
    36    16    34    1
    37    17    35    1
    38    19    36    1
