@<TRIPOS>MOLECULE
*****
 36 38 0 0 0
SMALL
USER_CHARGES

@<TRIPOS>ATOM
      1 C1          2.4339   -3.7438   -1.4369 C.3     1  LIG1        0.0000
      2 C2          1.9618   -2.2990   -1.4448 C.3     1  LIG1        0.0000
      3 C3          1.8311   -1.8009   -0.0147 C.3     1  LIG1        0.0000
      4 C4          1.3597   -0.3580   -0.0225 C.2     1  LIG1        0.0000
      5 N5          2.2686    0.5874   -0.0504 N.2     1  LIG1        0.0000
      6 S6          1.4270    2.0136   -0.0680 S.3     1  LIG1        0.0000
      7 C7         -0.1399    1.3504   -0.0422 C.2     1  LIG1        0.0000
      8 O8         -1.3148    2.0136   -0.0433 O.3     1  LIG1        0.0000
      9 C9         -1.8098    2.3206    1.1741 C.ar    1  LIG1        0.0000
     10 C10        -3.0177    3.0042    1.2667 C.ar    1  LIG1        0.0000
     11 C11        -3.5242    3.3181    2.5239 C.ar    1  LIG1        0.0000
     12 C12        -2.8238    2.9501    3.6674 C.ar    1  LIG1        0.0000
     13 C13        -3.3382    3.2678    4.9206 C.ar    1  LIG1        0.0000
     14 C14        -2.6447    2.9014    6.0697 C.ar    1  LIG1        0.0000
     15 C15        -1.4392    2.2184    5.9505 C.ar    1  LIG1        0.0000
     16 C16        -0.6755    1.8147    7.2004 C.3     1  LIG1        0.0000
     17 C17        -0.9147    1.8945    4.7041 C.ar    1  LIG1        0.0000
     18 C18        -1.6162    2.2655    3.5622 C.ar    1  LIG1        0.0000
     19 C19        -1.1004    1.9459    2.3105 C.ar    1  LIG1        0.0000
     20 N20         0.0502    0.0621   -0.0137 N.2     1  LIG1        0.0000
     21 H           2.5198   -4.0715   -2.3778 H       1  LIG1        0.0000
     22 H           3.3221   -3.8018   -0.9813 H       1  LIG1        0.0000
     23 H           1.7702   -4.3087   -0.9465 H       1  LIG1        0.0000
     24 H           2.6254   -1.7341   -1.9352 H       1  LIG1        0.0000
     25 H           1.0735   -2.2410   -1.9004 H       1  LIG1        0.0000
     26 H           1.1674   -2.3657    0.4757 H       1  LIG1        0.0000
     27 H           2.7194   -1.8588    0.4410 H       1  LIG1        0.0000
     28 H          -3.5157    3.2666    0.4402 H       1  LIG1        0.0000
     29 H          -4.3919    3.8085    2.6052 H       1  LIG1        0.0000
     30 H          -4.2059    3.7593    4.9952 H       1  LIG1        0.0000
     31 H          -3.0097    3.1271    6.9729 H       1  LIG1        0.0000
     32 H          -1.1783    2.1167    8.0104 H       1  LIG1        0.0000
     33 H          -0.5743    0.8201    7.2225 H       1  LIG1        0.0000
     34 H           0.2288    2.2416    7.1910 H       1  LIG1        0.0000
     35 H          -0.0472    1.4028    4.6301 H       1  LIG1        0.0000
     36 H          -0.2333    1.4546    2.2289 H       1  LIG1        0.0000
@<TRIPOS>BOND
     1     1     2    1
     2     2     3    1
     3     3     4    1
     4     4     5    2
     5     5     6    1
     6     6     7    1
     7     7     8    1
     8     8     9    1
     9     9    10   ar
    10    10    11   ar
    11    11    12   ar
    12    12    13   ar
    13    13    14   ar
    14    14    15   ar
    15    15    16    1
    16    15    17   ar
    17    17    18   ar
    18    18    12   ar
    19    18    19   ar
    20    19     9   ar
    21     7    20    2
    22    20     4    1
    23     1    21    1
    24     1    22    1
    25     1    23    1
    26     2    24    1
    27     2    25    1
    28     3    26    1
    29     3    27    1
    30    10    28    1
    31    11    29    1
    32    13    30    1
    33    14    31    1
    34    16    32    1
    35    16    33    1
    36    16    34    1
    37    17    35    1
    38    19    36    1
