@<TRIPOS>MOLECULE
*****
 36 38 0 0 0
SMALL
USER_CHARGES

@<TRIPOS>ATOM
      1 C1          1.0986   -4.1721    0.0263 C.3     1  LIG1        0.0000
      2 C2          0.6265   -2.7273    0.0184 C.3     1  LIG1        0.0000
      3 C3          1.8311   -1.8009   -0.0147 C.3     1  LIG1        0.0000
      4 C4          1.3597   -0.3580   -0.0225 C.2     1  LIG1        0.0000
      5 N5          2.2686    0.5874   -0.0504 N.2     1  LIG1        0.0000
      6 S6          1.4270    2.0136   -0.0680 S.3     1  LIG1        0.0000
      7 C7         -0.1399    1.3504   -0.0422 C.2     1  LIG1        0.0000
      8 O8         -1.3148    2.0136   -0.0433 O.3     1  LIG1        0.0000
      9 C9         -2.4194    1.2387   -0.0197 C.ar    1  LIG1        0.0000
     10 C10        -2.9885    0.8254   -1.2198 C.ar    1  LIG1        0.0000
     11 C11        -4.1269    0.0262   -1.1904 C.ar    1  LIG1        0.0000
     12 C12        -4.6822   -0.3483    0.0282 C.ar    1  LIG1        0.0000
     13 C13        -5.8206   -1.1481    0.0479 C.ar    1  LIG1        0.0000
     14 C14        -6.3813   -1.5289    1.2629 C.ar    1  LIG1        0.0000
     15 C15        -5.7935   -1.1028    2.4491 C.ar    1  LIG1        0.0000
     16 C16        -6.3996   -1.5142    3.7802 C.3     1  LIG1        0.0000
     17 C17        -4.6555   -0.3038    2.4428 C.ar    1  LIG1        0.0000
     18 C18        -4.1034    0.0708    1.2228 C.ar    1  LIG1        0.0000
     19 C19        -2.9648    0.8697    1.2057 C.ar    1  LIG1        0.0000
     20 N20         0.0502    0.0621   -0.0137 N.2     1  LIG1        0.0000
     21 H           0.3061   -4.7816    0.0481 H       1  LIG1        0.0000
     22 H           1.6349   -4.3520   -0.7983 H       1  LIG1        0.0000
     23 H           1.6653   -4.3332    0.8343 H       1  LIG1        0.0000
     24 H           0.0598   -2.5662   -0.7895 H       1  LIG1        0.0000
     25 H           0.0902   -2.5474    0.8431 H       1  LIG1        0.0000
     26 H           2.3979   -1.9620    0.7933 H       1  LIG1        0.0000
     27 H           2.3674   -1.9808   -0.8393 H       1  LIG1        0.0000
     28 H          -2.5844    1.0992   -2.0926 H       1  LIG1        0.0000
     29 H          -4.5459   -0.2788   -2.0457 H       1  LIG1        0.0000
     30 H          -6.2355   -1.4490   -0.8107 H       1  LIG1        0.0000
     31 H          -7.1994   -2.1037    1.2831 H       1  LIG1        0.0000
     32 H          -7.2063   -2.0824    3.6178 H       1  LIG1        0.0000
     33 H          -5.7265   -2.0337    4.3066 H       1  LIG1        0.0000
     34 H          -6.6648   -0.6973    4.2924 H       1  LIG1        0.0000
     35 H          -4.2408   -0.0035    3.3018 H       1  LIG1        0.0000
     36 H          -2.5450    1.1740    2.0607 H       1  LIG1        0.0000
@<TRIPOS>BOND
     1     1     2    1
     2     2     3    1
     3     3     4    1
     4     4     5    2
     5     5     6    1
     6     6     7    1
     7     7     8    1
     8     8     9    1
     9     9    10   ar
    10    10    11   ar
    11    11    12   ar
    12    12    13   ar
    13    13    14   ar
    14    14    15   ar
    15    15    16    1
    16    15    17   ar
    17    17    18   ar
    18    18    12   ar
    19    18    19   ar
    20    19     9   ar
    21     7    20    2
    22    20     4    1
    23     1    21    1
    24     1    22    1
    25     1    23    1
    26     2    24    1
    27     2    25    1
    28     3    26    1
    29     3    27    1
    30    10    28    1
    31    11    29    1
    32    13    30    1
    33    14    31    1
    34    16    32    1
    35    16    33    1
    36    16    34    1
    37    17    35    1
    38    19    36    1
