@<TRIPOS>MOLECULE
*****
 36 38 0 0 0
SMALL
USER_CHARGES

@<TRIPOS>ATOM
      1 C1          3.8225   -3.2824   -0.0347 C.3     1  LIG1        0.0000
      2 C2          3.3504   -1.8376   -0.0426 C.3     1  LIG1        0.0000
      3 C3          1.8311   -1.8009   -0.0147 C.3     1  LIG1        0.0000
      4 C4          1.3597   -0.3580   -0.0225 C.2     1  LIG1        0.0000
      5 N5          2.2686    0.5874   -0.0504 N.2     1  LIG1        0.0000
      6 S6          1.4270    2.0136   -0.0680 S.3     1  LIG1        0.0000
      7 C7         -0.1399    1.3504   -0.0422 C.2     1  LIG1        0.0000
      8 O8         -1.3148    2.0136   -0.0433 O.3     1  LIG1        0.0000
      9 C9         -1.3078    3.2069   -0.6735 C.ar    1  LIG1        0.0000
     10 C10        -2.4768    3.9591   -0.7228 C.ar    1  LIG1        0.0000
     11 C11        -2.4646    5.1889   -1.3733 C.ar    1  LIG1        0.0000
     12 C12        -1.2940    5.6510   -1.9647 C.ar    1  LIG1        0.0000
     13 C13        -1.2910    6.8823   -2.6126 C.ar    1  LIG1        0.0000
     14 C14        -0.1234    7.3529   -3.2051 C.ar    1  LIG1        0.0000
     15 C15         1.0324    6.5821   -3.1420 C.ar    1  LIG1        0.0000
     16 C16         2.3116    7.0887   -3.7865 C.3     1  LIG1        0.0000
     17 C17         1.0426    5.3503   -2.4970 C.ar    1  LIG1        0.0000
     18 C18        -0.1299    4.8897   -1.9082 C.ar    1  LIG1        0.0000
     19 C19        -0.1302    3.6588   -1.2602 C.ar    1  LIG1        0.0000
     20 N20         0.0502    0.0621   -0.0137 N.2     1  LIG1        0.0000
     21 H           4.8220   -3.3066   -0.0530 H       1  LIG1        0.0000
     22 H           3.4932   -3.7362    0.7934 H       1  LIG1        0.0000
     23 H           3.4628   -3.7550   -0.8392 H       1  LIG1        0.0000
     24 H           3.7101   -1.3650    0.7620 H       1  LIG1        0.0000
     25 H           3.6797   -1.3839   -0.8706 H       1  LIG1        0.0000
     26 H           1.4714   -2.2735   -0.8192 H       1  LIG1        0.0000
     27 H           1.5018   -2.2546    0.8134 H       1  LIG1        0.0000
     28 H          -3.3154    3.6203   -0.2961 H       1  LIG1        0.0000
     29 H          -3.2977    5.7405   -1.4155 H       1  LIG1        0.0000
     30 H          -2.1275    7.4287   -2.6524 H       1  LIG1        0.0000
     31 H          -0.1154    8.2371   -3.6721 H       1  LIG1        0.0000
     32 H           2.1430    7.9807   -4.2059 H       1  LIG1        0.0000
     33 H           3.0235    7.1771   -3.0898 H       1  LIG1        0.0000
     34 H           2.6103    6.4416   -4.4880 H       1  LIG1        0.0000
     35 H           1.8795    4.8045   -2.4572 H       1  LIG1        0.0000
     36 H           0.7029    3.1075   -1.2167 H       1  LIG1        0.0000
@<TRIPOS>BOND
     1     1     2    1
     2     2     3    1
     3     3     4    1
     4     4     5    2
     5     5     6    1
     6     6     7    1
     7     7     8    1
     8     8     9    1
     9     9    10   ar
    10    10    11   ar
    11    11    12   ar
    12    12    13   ar
    13    13    14   ar
    14    14    15   ar
    15    15    16    1
    16    15    17   ar
    17    17    18   ar
    18    18    12   ar
    19    18    19   ar
    20    19     9   ar
    21     7    20    2
    22    20     4    1
    23     1    21    1
    24     1    22    1
    25     1    23    1
    26     2    24    1
    27     2    25    1
    28     3    26    1
    29     3    27    1
    30    10    28    1
    31    11    29    1
    32    13    30    1
    33    14    31    1
    34    16    32    1
    35    16    33    1
    36    16    34    1
    37    17    35    1
    38    19    36    1
