@<TRIPOS>MOLECULE
*****
 36 38 0 0 0
SMALL
USER_CHARGES

@<TRIPOS>ATOM
      1 C1          2.4872   -3.7108    1.4285 C.3     1  LIG1        0.0000
      2 C2          2.0152   -2.2659    1.4207 C.3     1  LIG1        0.0000
      3 C3          1.8311   -1.8009   -0.0147 C.3     1  LIG1        0.0000
      4 C4          1.3597   -0.3580   -0.0225 C.2     1  LIG1        0.0000
      5 N5          2.2686    0.5874   -0.0504 N.2     1  LIG1        0.0000
      6 S6          1.4270    2.0136   -0.0680 S.3     1  LIG1        0.0000
      7 C7         -0.1399    1.3504   -0.0422 C.2     1  LIG1        0.0000
      8 O8         -1.3148    2.0136   -0.0433 O.3     1  LIG1        0.0000
      9 C9         -2.3337    1.3914    0.5860 C.ar    1  LIG1        0.0000
     10 C10        -3.5819    2.0036    0.6331 C.ar    1  LIG1        0.0000
     11 C11        -4.6293    1.3582    1.2826 C.ar    1  LIG1        0.0000
     12 C12        -4.4209    0.1176    1.8753 C.ar    1  LIG1        0.0000
     13 C13        -5.4744   -0.5207    2.5222 C.ar    1  LIG1        0.0000
     14 C14        -5.2748   -1.7630    3.1161 C.ar    1  LIG1        0.0000
     15 C15        -4.0176   -2.3542    3.0551 C.ar    1  LIG1        0.0000
     16 C16        -3.7911   -3.7107    3.7010 C.3     1  LIG1        0.0000
     17 C17        -2.9568   -1.7269    2.4111 C.ar    1  LIG1        0.0000
     18 C18        -3.1675   -0.4856    1.8210 C.ar    1  LIG1        0.0000
     19 C19        -2.1130    0.1502    1.1740 C.ar    1  LIG1        0.0000
     20 N20         0.0502    0.0621   -0.0137 N.2     1  LIG1        0.0000
     21 H           2.6083   -4.0167    2.3729 H       1  LIG1        0.0000
     22 H           1.8060   -4.2865    0.9764 H       1  LIG1        0.0000
     23 H           3.3580   -3.7796    0.9416 H       1  LIG1        0.0000
     24 H           1.1444   -2.1971    1.9076 H       1  LIG1        0.0000
     25 H           2.6964   -1.6902    1.8729 H       1  LIG1        0.0000
     26 H           2.7018   -1.8697   -0.5016 H       1  LIG1        0.0000
     27 H           1.1499   -2.3766   -0.4669 H       1  LIG1        0.0000
     28 H          -3.7245    2.8963    0.2055 H       1  LIG1        0.0000
     29 H          -5.5321    1.7864    1.3233 H       1  LIG1        0.0000
     30 H          -6.3746   -0.0868    2.5604 H       1  LIG1        0.0000
     31 H          -6.0284   -2.2264    3.5823 H       1  LIG1        0.0000
     32 H          -4.6425   -4.0269    4.1195 H       1  LIG1        0.0000
     33 H          -3.4980   -4.3664    3.0053 H       1  LIG1        0.0000
     34 H          -3.0838   -3.6315    4.4034 H       1  LIG1        0.0000
     35 H          -2.0570   -2.1615    2.3729 H       1  LIG1        0.0000
     36 H          -1.2104   -0.2783    1.1322 H       1  LIG1        0.0000
@<TRIPOS>BOND
     1     1     2    1
     2     2     3    1
     3     3     4    1
     4     4     5    2
     5     5     6    1
     6     6     7    1
     7     7     8    1
     8     8     9    1
     9     9    10   ar
    10    10    11   ar
    11    11    12   ar
    12    12    13   ar
    13    13    14   ar
    14    14    15   ar
    15    15    16    1
    16    15    17   ar
    17    17    18   ar
    18    18    12   ar
    19    18    19   ar
    20    19     9   ar
    21     7    20    2
    22    20     4    1
    23     1    21    1
    24     1    22    1
    25     1    23    1
    26     2    24    1
    27     2    25    1
    28     3    26    1
    29     3    27    1
    30    10    28    1
    31    11    29    1
    32    13    30    1
    33    14    31    1
    34    16    32    1
    35    16    33    1
    36    16    34    1
    37    17    35    1
    38    19    36    1
