@<TRIPOS>MOLECULE

  55   57
SMALL
USER_CHARGES
@<TRIPOS>ATOM
   1 C1          -2.3561     7.7904     2.1747 C.3          1    LIG   0.0000
   2 C2          -2.0629     6.3038     2.2950 C.3          1    LIG   0.0000
   3 C3          -3.2817     5.5909     2.8577 C.3          1    LIG   0.0000
   4 O4          -1.7563     5.7766     1.0126 O.3          1    LIG   0.0000
   5 C5          -1.0806     4.6080     1.0112 C.ar         1    LIG   0.0000
   6 C6          -0.7381     4.0127     2.2209 C.ar         1    LIG   0.0000
   7 C7          -0.0435     2.8074     2.2102 C.ar         1    LIG   0.0000
   8 C8           0.2997     2.2129     1.0000 C.ar         1    LIG   0.0000
   9 N9           1.0000     1.0000     1.0000 N.am         1    LIG   0.0000
  10 C10          0.2650    -0.2731     1.0000 C.3          1    LIG   0.0000
  11 C11          2.3700     1.0000     1.0000 C.2          1    LIG   0.0000
  12 O12          2.9700    -0.0392     1.0000 O.2          1    LIG   0.0000
  13 C13          3.0948     2.2554     1.0000 C.2          1    LIG   0.0000
  14 C14          3.4965     2.9549     2.0969 C.2          1    LIG   0.0000
  15 N15          4.1346     4.0610     1.6265 N.pl3        1    LIG   0.0000
  16 C16          4.7378     5.1027     2.4696 C.3          1    LIG   0.0000
  17 C17          6.1856     4.7432     2.7610 C.3          1    LIG   0.0000
  18 C18          6.8095     5.8206     3.6331 C.1          1    LIG   0.0000
  19 N19          7.2774     6.6286     4.2871 N.1          1    LIG   0.0000
  20 N20          4.1277     4.0477     0.3131 N.2          1    LIG   0.0000
  21 C21          3.5118     2.9776    -0.1328 C.2          1    LIG   0.0000
  22 C22          3.3055     2.6138    -1.5218 C.ar         1    LIG   0.0000
  23 C23          2.9778     3.5991    -2.4484 C.ar         1    LIG   0.0000
  24 C24          2.7777     3.2597    -3.7822 C.ar         1    LIG   0.0000
  25 C25          2.9083     1.9306    -4.1704 C.ar         1    LIG   0.0000
  26 N26          2.7077     1.5825    -5.5117 N.2          1    LIG   1.0000
  27 O27          2.8189     0.4292    -5.8606 O.co2        1    LIG   0.0000
  28 O28          2.4208     2.4420    -6.3286 O.co2        1    LIG  -1.0000
  29 C29          3.2349     0.9389    -3.2516 C.ar         1    LIG   0.0000
  30 C30          3.4346     1.2875    -1.9197 C.ar         1    LIG   0.0000
  31 C31         -0.0473     2.8158    -0.2043 C.ar         1    LIG   0.0000
  32 C32         -0.7418     4.0206    -0.2035 C.ar         1    LIG   0.0000
  33 H           -2.5721     8.1617     3.0777 H            1    LIG   0.0000
  34 H           -1.5543     8.2594     1.8044 H            1    LIG   0.0000
  35 H           -3.1349     7.9281     1.5627 H            1    LIG   0.0000
  36 H           -1.2841     6.1661     2.9069 H            1    LIG   0.0000
  37 H           -3.4977     5.9622     3.7607 H            1    LIG   0.0000
  38 H           -4.0605     5.7286     2.2457 H            1    LIG   0.0000
  39 H           -3.0888     4.6129     2.9368 H            1    LIG   0.0000
  40 H           -0.9880     4.4456     3.0870 H            1    LIG   0.0000
  41 H            0.2091     2.3682     3.0723 H            1    LIG   0.0000
  42 H            0.9148    -1.0331     1.0000 H            1    LIG   0.0000
  43 H           -0.3099    -0.3260     1.8165 H            1    LIG   0.0000
  44 H           -0.3099    -0.3260     0.1835 H            1    LIG   0.0000
  45 H            3.3520     2.7061     3.0546 H            1    LIG   0.0000
  46 H            4.2315     5.1702     3.3294 H            1    LIG   0.0000
  47 H            4.7019     5.9804     1.9918 H            1    LIG   0.0000
  48 H            6.2215     3.8654     3.2388 H            1    LIG   0.0000
  49 H            6.6918     4.6757     1.9013 H            1    LIG   0.0000
  50 H            2.8862     4.5508    -2.1553 H            1    LIG   0.0000
  51 H            2.5428     3.9625    -4.4537 H            1    LIG   0.0000
  52 H            3.3251    -0.0129    -3.5448 H            1    LIG   0.0000
  53 H            3.6708     0.5846    -1.2487 H            1    LIG   0.0000
  54 H            0.2025     2.3831    -1.0705 H            1    LIG   0.0000
  55 H           -0.9947     4.4594    -1.0657 H            1    LIG   0.0000
@<TRIPOS>BOND
   1        1        2 1
   2        2        3 1
   3        2        4 1
   4        4        5 1
   5        5        6 ar
   6        6        7 ar
   7        7        8 ar
   8        8        9 1
   9        9       10 1
  10        9       11 am
  11       11       12 2
  12       11       13 1
  13       13       14 2
  14       14       15 1
  15       15       16 1
  16       16       17 1
  17       17       18 1
  18       18       19 3
  19       15       20 1
  20       20       21 2
  21       21       13 1
  22       21       22 1
  23       22       23 ar
  24       23       24 ar
  25       24       25 ar
  26       25       26 1
  27       26       27 ar
  28       26       28 ar
  29       25       29 ar
  30       29       30 ar
  31       30       22 ar
  32        8       31 ar
  33       31       32 ar
  34       32        5 ar
  35        1       33 1
  36        1       34 1
  37        1       35 1
  38        2       36 1
  39        3       37 1
  40        3       38 1
  41        3       39 1
  42        6       40 1
  43        7       41 1
  44       10       42 1
  45       10       43 1
  46       10       44 1
  47       14       45 1
  48       16       46 1
  49       16       47 1
  50       17       48 1
  51       17       49 1
  52       23       50 1
  53       24       51 1
  54       29       52 1
  55       30       53 1
  56       31       54 1
  57       32       55 1

@<TRIPOS>MOLECULE

  55   57
SMALL
USER_CHARGES
@<TRIPOS>ATOM
   1 C1          -3.2036     7.3033    -0.1450 C.3          1    LIG   0.0000
   2 C2          -2.0616     6.3078    -0.2684 C.3          1    LIG   0.0000
   3 C3          -0.8363     7.0094    -0.8311 C.3          1    LIG   0.0000
   4 O4          -1.7563     5.7766     1.0126 O.3          1    LIG   0.0000
   5 C5          -1.0806     4.6080     1.0112 C.ar         1    LIG   0.0000
   6 C6          -0.7381     4.0127     2.2209 C.ar         1    LIG   0.0000
   7 C7          -0.0435     2.8074     2.2102 C.ar         1    LIG   0.0000
   8 C8           0.2997     2.2129     1.0000 C.ar         1    LIG   0.0000
   9 N9           1.0000     1.0000     1.0000 N.am         1    LIG   0.0000
  10 C10          0.2650    -0.2731     1.0000 C.3          1    LIG   0.0000
  11 C11          2.3700     1.0000     1.0000 C.2          1    LIG   0.0000
  12 O12          2.9700    -0.0392     1.0000 O.2          1    LIG   0.0000
  13 C13          3.0948     2.2554     1.0000 C.2          1    LIG   0.0000
  14 C14          3.4965     2.9549     2.0969 C.2          1    LIG   0.0000
  15 N15          4.1346     4.0610     1.6265 N.pl3        1    LIG   0.0000
  16 C16          4.7378     5.1027     2.4696 C.3          1    LIG   0.0000
  17 C17          6.1856     4.7432     2.7610 C.3          1    LIG   0.0000
  18 C18          6.8095     5.8206     3.6331 C.1          1    LIG   0.0000
  19 N19          7.2774     6.6286     4.2871 N.1          1    LIG   0.0000
  20 N20          4.1277     4.0477     0.3131 N.2          1    LIG   0.0000
  21 C21          3.5118     2.9776    -0.1328 C.2          1    LIG   0.0000
  22 C22          3.3055     2.6138    -1.5218 C.ar         1    LIG   0.0000
  23 C23          2.9778     3.5991    -2.4484 C.ar         1    LIG   0.0000
  24 C24          2.7777     3.2597    -3.7822 C.ar         1    LIG   0.0000
  25 C25          2.9083     1.9306    -4.1704 C.ar         1    LIG   0.0000
  26 N26          2.7077     1.5825    -5.5117 N.2          1    LIG   1.0000
  27 O27          2.8189     0.4292    -5.8606 O.co2        1    LIG   0.0000
  28 O28          2.4208     2.4420    -6.3286 O.co2        1    LIG  -1.0000
  29 C29          3.2349     0.9389    -3.2516 C.ar         1    LIG   0.0000
  30 C30          3.4346     1.2875    -1.9197 C.ar         1    LIG   0.0000
  31 C31         -0.0473     2.8158    -0.2043 C.ar         1    LIG   0.0000
  32 C32         -0.7418     4.0206    -0.2035 C.ar         1    LIG   0.0000
  33 H           -3.4186     7.6774    -1.0471 H            1    LIG   0.0000
  34 H           -4.0097     6.8417     0.2252 H            1    LIG   0.0000
  35 H           -2.9337     8.0458     0.4681 H            1    LIG   0.0000
  36 H           -2.3315     5.5652    -0.8815 H            1    LIG   0.0000
  37 H           -1.0513     7.3835    -1.7332 H            1    LIG   0.0000
  38 H           -0.5664     7.7519    -0.2180 H            1    LIG   0.0000
  39 H           -0.0850     6.3545    -0.9123 H            1    LIG   0.0000
  40 H           -0.9880     4.4456     3.0870 H            1    LIG   0.0000
  41 H            0.2091     2.3682     3.0723 H            1    LIG   0.0000
  42 H            0.9148    -1.0331     1.0000 H            1    LIG   0.0000
  43 H           -0.3099    -0.3260     1.8165 H            1    LIG   0.0000
  44 H           -0.3099    -0.3260     0.1835 H            1    LIG   0.0000
  45 H            3.3520     2.7061     3.0546 H            1    LIG   0.0000
  46 H            4.2315     5.1702     3.3294 H            1    LIG   0.0000
  47 H            4.7019     5.9804     1.9918 H            1    LIG   0.0000
  48 H            6.2215     3.8654     3.2388 H            1    LIG   0.0000
  49 H            6.6918     4.6757     1.9013 H            1    LIG   0.0000
  50 H            2.8862     4.5508    -2.1553 H            1    LIG   0.0000
  51 H            2.5428     3.9625    -4.4537 H            1    LIG   0.0000
  52 H            3.3251    -0.0129    -3.5448 H            1    LIG   0.0000
  53 H            3.6708     0.5846    -1.2487 H            1    LIG   0.0000
  54 H            0.2025     2.3831    -1.0705 H            1    LIG   0.0000
  55 H           -0.9947     4.4594    -1.0657 H            1    LIG   0.0000
@<TRIPOS>BOND
   1        1        2 1
   2        2        3 1
   3        2        4 1
   4        4        5 1
   5        5        6 ar
   6        6        7 ar
   7        7        8 ar
   8        8        9 1
   9        9       10 1
  10        9       11 am
  11       11       12 2
  12       11       13 1
  13       13       14 2
  14       14       15 1
  15       15       16 1
  16       16       17 1
  17       17       18 1
  18       18       19 3
  19       15       20 1
  20       20       21 2
  21       21       13 1
  22       21       22 1
  23       22       23 ar
  24       23       24 ar
  25       24       25 ar
  26       25       26 1
  27       26       27 ar
  28       26       28 ar
  29       25       29 ar
  30       29       30 ar
  31       30       22 ar
  32        8       31 ar
  33       31       32 ar
  34       32        5 ar
  35        1       33 1
  36        1       34 1
  37        1       35 1
  38        2       36 1
  39        3       37 1
  40        3       38 1
  41        3       39 1
  42        6       40 1
  43        7       41 1
  44       10       42 1
  45       10       43 1
  46       10       44 1
  47       14       45 1
  48       16       46 1
  49       16       47 1
  50       17       48 1
  51       17       49 1
  52       23       50 1
  53       24       51 1
  54       29       52 1
  55       30       53 1
  56       31       54 1
  57       32       55 1

@<TRIPOS>MOLECULE

  55   57
SMALL
USER_CHARGES
@<TRIPOS>ATOM
   1 C1          -2.3561     7.7904     2.1747 C.3          1    LIG   0.0000
   2 C2          -2.0629     6.3038     2.2950 C.3          1    LIG   0.0000
   3 C3          -3.2817     5.5909     2.8577 C.3          1    LIG   0.0000
   4 O4          -1.7563     5.7766     1.0126 O.3          1    LIG   0.0000
   5 C5          -1.0806     4.6080     1.0112 C.ar         1    LIG   0.0000
   6 C6          -0.7381     4.0127     2.2209 C.ar         1    LIG   0.0000
   7 C7          -0.0435     2.8074     2.2102 C.ar         1    LIG   0.0000
   8 C8           0.2997     2.2129     1.0000 C.ar         1    LIG   0.0000
   9 N9           1.0000     1.0000     1.0000 N.am         1    LIG   0.0000
  10 C10          0.2650    -0.2731     1.0000 C.3          1    LIG   0.0000
  11 C11          2.3700     1.0000     1.0000 C.2          1    LIG   0.0000
  12 O12          2.9700    -0.0392     1.0000 O.2          1    LIG   0.0000
  13 C13          3.0948     2.2554     1.0000 C.2          1    LIG   0.0000
  14 C14          3.4997     2.9530    -0.0969 C.2          1    LIG   0.0000
  15 N15          4.1386     4.0587     0.3735 N.pl3        1    LIG   0.0000
  16 C16          4.7391     5.1019    -0.4696 C.3          1    LIG   0.0000
  17 C17          3.7039     6.1760    -0.7610 C.3          1    LIG   0.0000
  18 C18          4.3250     7.2550    -1.6331 C.1          1    LIG   0.0000
  19 N19          4.7908     8.0642    -2.2871 N.1          1    LIG   0.0000
  20 N20          4.1306     4.0461     1.6869 N.2          1    LIG   0.0000
  21 C21          3.5118     2.9776     2.1328 C.2          1    LIG   0.0000
  22 C22          3.2999     2.6170     3.5218 C.ar         1    LIG   0.0000
  23 C23          2.9698     3.6047     4.4450 C.ar         1    LIG   0.0000
  24 C24          2.7652     3.2686     5.7790 C.ar         1    LIG   0.0000
  25 C25          2.8961     1.9407     6.1711 C.ar         1    LIG   0.0000
  26 N26          2.6918     1.5960     7.5128 N.2          1    LIG   1.0000
  27 O27          2.8029     0.4437     7.8651 O.co2        1    LIG   0.0000
  28 O28          2.4017     2.4574     8.3266 O.co2        1    LIG  -1.0000
  29 C29          3.2262     0.9468     5.2560 C.ar         1    LIG   0.0000
  30 C30          3.4278     1.2917     3.9234 C.ar         1    LIG   0.0000
  31 C31         -0.0473     2.8158    -0.2043 C.ar         1    LIG   0.0000
  32 C32         -0.7418     4.0206    -0.2035 C.ar         1    LIG   0.0000
  33 H           -2.5721     8.1617     3.0777 H            1    LIG   0.0000
  34 H           -1.5543     8.2594     1.8044 H            1    LIG   0.0000
  35 H           -3.1349     7.9281     1.5627 H            1    LIG   0.0000
  36 H           -1.2841     6.1661     2.9069 H            1    LIG   0.0000
  37 H           -3.4977     5.9622     3.7607 H            1    LIG   0.0000
  38 H           -4.0605     5.7286     2.2457 H            1    LIG   0.0000
  39 H           -3.0888     4.6129     2.9368 H            1    LIG   0.0000
  40 H           -0.9880     4.4456     3.0870 H            1    LIG   0.0000
  41 H            0.2091     2.3682     3.0723 H            1    LIG   0.0000
  42 H            0.9148    -1.0331     1.0000 H            1    LIG   0.0000
  43 H           -0.3099    -0.3260     1.8165 H            1    LIG   0.0000
  44 H           -0.3099    -0.3260     0.1835 H            1    LIG   0.0000
  45 H            3.3565     2.7035    -1.0546 H            1    LIG   0.0000
  46 H            5.0507     4.6972    -1.3294 H            1    LIG   0.0000
  47 H            5.5172     5.5097     0.0082 H            1    LIG   0.0000
  48 H            2.9258     5.7682    -1.2388 H            1    LIG   0.0000
  49 H            3.3923     6.5806     0.0987 H            1    LIG   0.0000
  50 H            2.8798     4.5558     4.1494 H            1    LIG   0.0000
  51 H            2.5270     3.9729     6.4477 H            1    LIG   0.0000
  52 H            3.3174    -0.0039     5.5522 H            1    LIG   0.0000
  53 H            3.6646     0.5870     3.2546 H            1    LIG   0.0000
  54 H            0.2025     2.3831    -1.0705 H            1    LIG   0.0000
  55 H           -0.9947     4.4594    -1.0657 H            1    LIG   0.0000
@<TRIPOS>BOND
   1        1        2 1
   2        2        3 1
   3        2        4 1
   4        4        5 1
   5        5        6 ar
   6        6        7 ar
   7        7        8 ar
   8        8        9 1
   9        9       10 1
  10        9       11 am
  11       11       12 2
  12       11       13 1
  13       13       14 2
  14       14       15 1
  15       15       16 1
  16       16       17 1
  17       17       18 1
  18       18       19 3
  19       15       20 1
  20       20       21 2
  21       21       13 1
  22       21       22 1
  23       22       23 ar
  24       23       24 ar
  25       24       25 ar
  26       25       26 1
  27       26       27 ar
  28       26       28 ar
  29       25       29 ar
  30       29       30 ar
  31       30       22 ar
  32        8       31 ar
  33       31       32 ar
  34       32        5 ar
  35        1       33 1
  36        1       34 1
  37        1       35 1
  38        2       36 1
  39        3       37 1
  40        3       38 1
  41        3       39 1
  42        6       40 1
  43        7       41 1
  44       10       42 1
  45       10       43 1
  46       10       44 1
  47       14       45 1
  48       16       46 1
  49       16       47 1
  50       17       48 1
  51       17       49 1
  52       23       50 1
  53       24       51 1
  54       29       52 1
  55       30       53 1
  56       31       54 1
  57       32       55 1

@<TRIPOS>MOLECULE

  55   57
SMALL
USER_CHARGES
@<TRIPOS>ATOM
   1 C1          -3.2036     7.3033    -0.1450 C.3          1    LIG   0.0000
   2 C2          -2.0616     6.3078    -0.2684 C.3          1    LIG   0.0000
   3 C3          -0.8363     7.0094    -0.8311 C.3          1    LIG   0.0000
   4 O4          -1.7563     5.7766     1.0126 O.3          1    LIG   0.0000
   5 C5          -1.0806     4.6080     1.0112 C.ar         1    LIG   0.0000
   6 C6          -0.7381     4.0127     2.2209 C.ar         1    LIG   0.0000
   7 C7          -0.0435     2.8074     2.2102 C.ar         1    LIG   0.0000
   8 C8           0.2997     2.2129     1.0000 C.ar         1    LIG   0.0000
   9 N9           1.0000     1.0000     1.0000 N.am         1    LIG   0.0000
  10 C10          0.2650    -0.2731     1.0000 C.3          1    LIG   0.0000
  11 C11          2.3700     1.0000     1.0000 C.2          1    LIG   0.0000
  12 O12          2.9700    -0.0392     1.0000 O.2          1    LIG   0.0000
  13 C13          3.0948     2.2554     1.0000 C.2          1    LIG   0.0000
  14 C14          3.4997     2.9530    -0.0969 C.2          1    LIG   0.0000
  15 N15          4.1386     4.0587     0.3735 N.pl3        1    LIG   0.0000
  16 C16          4.7391     5.1019    -0.4696 C.3          1    LIG   0.0000
  17 C17          3.7039     6.1760    -0.7610 C.3          1    LIG   0.0000
  18 C18          4.3250     7.2550    -1.6331 C.1          1    LIG   0.0000
  19 N19          4.7908     8.0642    -2.2871 N.1          1    LIG   0.0000
  20 N20          4.1306     4.0461     1.6869 N.2          1    LIG   0.0000
  21 C21          3.5118     2.9776     2.1328 C.2          1    LIG   0.0000
  22 C22          3.2999     2.6170     3.5218 C.ar         1    LIG   0.0000
  23 C23          2.9698     3.6047     4.4450 C.ar         1    LIG   0.0000
  24 C24          2.7652     3.2686     5.7790 C.ar         1    LIG   0.0000
  25 C25          2.8961     1.9407     6.1711 C.ar         1    LIG   0.0000
  26 N26          2.6918     1.5960     7.5128 N.2          1    LIG   1.0000
  27 O27          2.8029     0.4437     7.8651 O.co2        1    LIG   0.0000
  28 O28          2.4017     2.4574     8.3266 O.co2        1    LIG  -1.0000
  29 C29          3.2262     0.9468     5.2560 C.ar         1    LIG   0.0000
  30 C30          3.4278     1.2917     3.9234 C.ar         1    LIG   0.0000
  31 C31         -0.0473     2.8158    -0.2043 C.ar         1    LIG   0.0000
  32 C32         -0.7418     4.0206    -0.2035 C.ar         1    LIG   0.0000
  33 H           -3.4186     7.6774    -1.0471 H            1    LIG   0.0000
  34 H           -4.0097     6.8417     0.2252 H            1    LIG   0.0000
  35 H           -2.9337     8.0458     0.4681 H            1    LIG   0.0000
  36 H           -2.3315     5.5652    -0.8815 H            1    LIG   0.0000
  37 H           -1.0513     7.3835    -1.7332 H            1    LIG   0.0000
  38 H           -0.5664     7.7519    -0.2180 H            1    LIG   0.0000
  39 H           -0.0850     6.3545    -0.9123 H            1    LIG   0.0000
  40 H           -0.9880     4.4456     3.0870 H            1    LIG   0.0000
  41 H            0.2091     2.3682     3.0723 H            1    LIG   0.0000
  42 H            0.9148    -1.0331     1.0000 H            1    LIG   0.0000
  43 H           -0.3099    -0.3260     1.8165 H            1    LIG   0.0000
  44 H           -0.3099    -0.3260     0.1835 H            1    LIG   0.0000
  45 H            3.3565     2.7035    -1.0546 H            1    LIG   0.0000
  46 H            5.0507     4.6972    -1.3294 H            1    LIG   0.0000
  47 H            5.5172     5.5097     0.0082 H            1    LIG   0.0000
  48 H            2.9258     5.7682    -1.2388 H            1    LIG   0.0000
  49 H            3.3923     6.5806     0.0987 H            1    LIG   0.0000
  50 H            2.8798     4.5558     4.1494 H            1    LIG   0.0000
  51 H            2.5270     3.9729     6.4477 H            1    LIG   0.0000
  52 H            3.3174    -0.0039     5.5522 H            1    LIG   0.0000
  53 H            3.6646     0.5870     3.2546 H            1    LIG   0.0000
  54 H            0.2025     2.3831    -1.0705 H            1    LIG   0.0000
  55 H           -0.9947     4.4594    -1.0657 H            1    LIG   0.0000
@<TRIPOS>BOND
   1        1        2 1
   2        2        3 1
   3        2        4 1
   4        4        5 1
   5        5        6 ar
   6        6        7 ar
   7        7        8 ar
   8        8        9 1
   9        9       10 1
  10        9       11 am
  11       11       12 2
  12       11       13 1
  13       13       14 2
  14       14       15 1
  15       15       16 1
  16       16       17 1
  17       17       18 1
  18       18       19 3
  19       15       20 1
  20       20       21 2
  21       21       13 1
  22       21       22 1
  23       22       23 ar
  24       23       24 ar
  25       24       25 ar
  26       25       26 1
  27       26       27 ar
  28       26       28 ar
  29       25       29 ar
  30       29       30 ar
  31       30       22 ar
  32        8       31 ar
  33       31       32 ar
  34       32        5 ar
  35        1       33 1
  36        1       34 1
  37        1       35 1
  38        2       36 1
  39        3       37 1
  40        3       38 1
  41        3       39 1
  42        6       40 1
  43        7       41 1
  44       10       42 1
  45       10       43 1
  46       10       44 1
  47       14       45 1
  48       16       46 1
  49       16       47 1
  50       17       48 1
  51       17       49 1
  52       23       50 1
  53       24       51 1
  54       29       52 1
  55       30       53 1
  56       31       54 1
  57       32       55 1

@<TRIPOS>MOLECULE

  55   57
SMALL
USER_CHARGES
@<TRIPOS>ATOM
   1 C1          -2.3561     7.7904     2.1747 C.3          1    LIG   0.0000
   2 C2          -2.0629     6.3038     2.2950 C.3          1    LIG   0.0000
   3 C3          -3.2817     5.5909     2.8577 C.3          1    LIG   0.0000
   4 O4          -1.7563     5.7766     1.0126 O.3          1    LIG   0.0000
   5 C5          -1.0806     4.6080     1.0112 C.ar         1    LIG   0.0000
   6 C6          -0.7381     4.0127     2.2209 C.ar         1    LIG   0.0000
   7 C7          -0.0435     2.8074     2.2102 C.ar         1    LIG   0.0000
   8 C8           0.2997     2.2129     1.0000 C.ar         1    LIG   0.0000
   9 N9           1.0000     1.0000     1.0000 N.am         1    LIG   0.0000
  10 C10          0.2650    -0.2731     1.0000 C.3          1    LIG   0.0000
  11 C11          2.3700     1.0000     1.0000 C.2          1    LIG   0.0000
  12 O12          2.9700     2.0392     1.0000 O.2          1    LIG   0.0000
  13 C13          3.0948    -0.2554     1.0000 C.2          1    LIG   0.0000
  14 C14          3.4965    -0.9549    -0.0969 C.2          1    LIG   0.0000
  15 N15          4.1346    -2.0610     0.3735 N.pl3        1    LIG   0.0000
  16 C16          4.7378    -3.1027    -0.4696 C.3          1    LIG   0.0000
  17 C17          6.1856    -2.7432    -0.7610 C.3          1    LIG   0.0000
  18 C18          6.8095    -3.8206    -1.6331 C.1          1    LIG   0.0000
  19 N19          7.2774    -4.6286    -2.2871 N.1          1    LIG   0.0000
  20 N20          4.1277    -2.0477     1.6869 N.2          1    LIG   0.0000
  21 C21          3.5118    -0.9776     2.1328 C.2          1    LIG   0.0000
  22 C22          3.3055    -0.6138     3.5218 C.ar         1    LIG   0.0000
  23 C23          2.9778    -1.5991     4.4484 C.ar         1    LIG   0.0000
  24 C24          2.7777    -1.2597     5.7822 C.ar         1    LIG   0.0000
  25 C25          2.9083     0.0694     6.1704 C.ar         1    LIG   0.0000
  26 N26          2.7077     0.4175     7.5117 N.2          1    LIG   1.0000
  27 O27          2.8189     1.5708     7.8606 O.co2        1    LIG   0.0000
  28 O28          2.4208    -0.4420     8.3286 O.co2        1    LIG  -1.0000
  29 C29          3.2349     1.0611     5.2516 C.ar         1    LIG   0.0000
  30 C30          3.4346     0.7125     3.9197 C.ar         1    LIG   0.0000
  31 C31         -0.0473     2.8158    -0.2043 C.ar         1    LIG   0.0000
  32 C32         -0.7418     4.0206    -0.2035 C.ar         1    LIG   0.0000
  33 H           -2.5721     8.1617     3.0777 H            1    LIG   0.0000
  34 H           -1.5543     8.2594     1.8044 H            1    LIG   0.0000
  35 H           -3.1349     7.9281     1.5627 H            1    LIG   0.0000
  36 H           -1.2841     6.1661     2.9069 H            1    LIG   0.0000
  37 H           -3.4977     5.9622     3.7607 H            1    LIG   0.0000
  38 H           -4.0605     5.7286     2.2457 H            1    LIG   0.0000
  39 H           -3.0888     4.6129     2.9368 H            1    LIG   0.0000
  40 H           -0.9880     4.4456     3.0870 H            1    LIG   0.0000
  41 H            0.2091     2.3682     3.0723 H            1    LIG   0.0000
  42 H            0.9148    -1.0331     1.0000 H            1    LIG   0.0000
  43 H           -0.3099    -0.3260     1.8165 H            1    LIG   0.0000
  44 H           -0.3099    -0.3260     0.1835 H            1    LIG   0.0000
  45 H            3.3520    -0.7061    -1.0546 H            1    LIG   0.0000
  46 H            4.2315    -3.1702    -1.3294 H            1    LIG   0.0000
  47 H            4.7019    -3.9804     0.0082 H            1    LIG   0.0000
  48 H            6.2215    -1.8654    -1.2388 H            1    LIG   0.0000
  49 H            6.6918    -2.6757     0.0987 H            1    LIG   0.0000
  50 H            2.8862    -2.5508     4.1553 H            1    LIG   0.0000
  51 H            2.5428    -1.9625     6.4537 H            1    LIG   0.0000
  52 H            3.3251     2.0129     5.5448 H            1    LIG   0.0000
  53 H            3.6708     1.4154     3.2487 H            1    LIG   0.0000
  54 H            0.2025     2.3831    -1.0705 H            1    LIG   0.0000
  55 H           -0.9947     4.4594    -1.0657 H            1    LIG   0.0000
@<TRIPOS>BOND
   1        1        2 1
   2        2        3 1
   3        2        4 1
   4        4        5 1
   5        5        6 ar
   6        6        7 ar
   7        7        8 ar
   8        8        9 1
   9        9       10 1
  10        9       11 am
  11       11       12 2
  12       11       13 1
  13       13       14 2
  14       14       15 1
  15       15       16 1
  16       16       17 1
  17       17       18 1
  18       18       19 3
  19       15       20 1
  20       20       21 2
  21       21       13 1
  22       21       22 1
  23       22       23 ar
  24       23       24 ar
  25       24       25 ar
  26       25       26 1
  27       26       27 ar
  28       26       28 ar
  29       25       29 ar
  30       29       30 ar
  31       30       22 ar
  32        8       31 ar
  33       31       32 ar
  34       32        5 ar
  35        1       33 1
  36        1       34 1
  37        1       35 1
  38        2       36 1
  39        3       37 1
  40        3       38 1
  41        3       39 1
  42        6       40 1
  43        7       41 1
  44       10       42 1
  45       10       43 1
  46       10       44 1
  47       14       45 1
  48       16       46 1
  49       16       47 1
  50       17       48 1
  51       17       49 1
  52       23       50 1
  53       24       51 1
  54       29       52 1
  55       30       53 1
  56       31       54 1
  57       32       55 1

@<TRIPOS>MOLECULE

  55   57
SMALL
USER_CHARGES
@<TRIPOS>ATOM
   1 C1          -3.2036     7.3033    -0.1450 C.3          1    LIG   0.0000
   2 C2          -2.0616     6.3078    -0.2684 C.3          1    LIG   0.0000
   3 C3          -0.8363     7.0094    -0.8311 C.3          1    LIG   0.0000
   4 O4          -1.7563     5.7766     1.0126 O.3          1    LIG   0.0000
   5 C5          -1.0806     4.6080     1.0112 C.ar         1    LIG   0.0000
   6 C6          -0.7381     4.0127     2.2209 C.ar         1    LIG   0.0000
   7 C7          -0.0435     2.8074     2.2102 C.ar         1    LIG   0.0000
   8 C8           0.2997     2.2129     1.0000 C.ar         1    LIG   0.0000
   9 N9           1.0000     1.0000     1.0000 N.am         1    LIG   0.0000
  10 C10          0.2650    -0.2731     1.0000 C.3          1    LIG   0.0000
  11 C11          2.3700     1.0000     1.0000 C.2          1    LIG   0.0000
  12 O12          2.9700     2.0392     1.0000 O.2          1    LIG   0.0000
  13 C13          3.0948    -0.2554     1.0000 C.2          1    LIG   0.0000
  14 C14          3.4965    -0.9549    -0.0969 C.2          1    LIG   0.0000
  15 N15          4.1346    -2.0610     0.3735 N.pl3        1    LIG   0.0000
  16 C16          4.7378    -3.1027    -0.4696 C.3          1    LIG   0.0000
  17 C17          6.1856    -2.7432    -0.7610 C.3          1    LIG   0.0000
  18 C18          6.8095    -3.8206    -1.6331 C.1          1    LIG   0.0000
  19 N19          7.2774    -4.6286    -2.2871 N.1          1    LIG   0.0000
  20 N20          4.1277    -2.0477     1.6869 N.2          1    LIG   0.0000
  21 C21          3.5118    -0.9776     2.1328 C.2          1    LIG   0.0000
  22 C22          3.3055    -0.6138     3.5218 C.ar         1    LIG   0.0000
  23 C23          2.9778    -1.5991     4.4484 C.ar         1    LIG   0.0000
  24 C24          2.7777    -1.2597     5.7822 C.ar         1    LIG   0.0000
  25 C25          2.9083     0.0694     6.1704 C.ar         1    LIG   0.0000
  26 N26          2.7077     0.4175     7.5117 N.2          1    LIG   1.0000
  27 O27          2.8189     1.5708     7.8606 O.co2        1    LIG   0.0000
  28 O28          2.4208    -0.4420     8.3286 O.co2        1    LIG  -1.0000
  29 C29          3.2349     1.0611     5.2516 C.ar         1    LIG   0.0000
  30 C30          3.4346     0.7125     3.9197 C.ar         1    LIG   0.0000
  31 C31         -0.0473     2.8158    -0.2043 C.ar         1    LIG   0.0000
  32 C32         -0.7418     4.0206    -0.2035 C.ar         1    LIG   0.0000
  33 H           -3.4186     7.6774    -1.0471 H            1    LIG   0.0000
  34 H           -4.0097     6.8417     0.2252 H            1    LIG   0.0000
  35 H           -2.9337     8.0458     0.4681 H            1    LIG   0.0000
  36 H           -2.3315     5.5652    -0.8815 H            1    LIG   0.0000
  37 H           -1.0513     7.3835    -1.7332 H            1    LIG   0.0000
  38 H           -0.5664     7.7519    -0.2180 H            1    LIG   0.0000
  39 H           -0.0850     6.3545    -0.9123 H            1    LIG   0.0000
  40 H           -0.9880     4.4456     3.0870 H            1    LIG   0.0000
  41 H            0.2091     2.3682     3.0723 H            1    LIG   0.0000
  42 H            0.9148    -1.0331     1.0000 H            1    LIG   0.0000
  43 H           -0.3099    -0.3260     1.8165 H            1    LIG   0.0000
  44 H           -0.3099    -0.3260     0.1835 H            1    LIG   0.0000
  45 H            3.3520    -0.7061    -1.0546 H            1    LIG   0.0000
  46 H            4.2315    -3.1702    -1.3294 H            1    LIG   0.0000
  47 H            4.7019    -3.9804     0.0082 H            1    LIG   0.0000
  48 H            6.2215    -1.8654    -1.2388 H            1    LIG   0.0000
  49 H            6.6918    -2.6757     0.0987 H            1    LIG   0.0000
  50 H            2.8862    -2.5508     4.1553 H            1    LIG   0.0000
  51 H            2.5428    -1.9625     6.4537 H            1    LIG   0.0000
  52 H            3.3251     2.0129     5.5448 H            1    LIG   0.0000
  53 H            3.6708     1.4154     3.2487 H            1    LIG   0.0000
  54 H            0.2025     2.3831    -1.0705 H            1    LIG   0.0000
  55 H           -0.9947     4.4594    -1.0657 H            1    LIG   0.0000
@<TRIPOS>BOND
   1        1        2 1
   2        2        3 1
   3        2        4 1
   4        4        5 1
   5        5        6 ar
   6        6        7 ar
   7        7        8 ar
   8        8        9 1
   9        9       10 1
  10        9       11 am
  11       11       12 2
  12       11       13 1
  13       13       14 2
  14       14       15 1
  15       15       16 1
  16       16       17 1
  17       17       18 1
  18       18       19 3
  19       15       20 1
  20       20       21 2
  21       21       13 1
  22       21       22 1
  23       22       23 ar
  24       23       24 ar
  25       24       25 ar
  26       25       26 1
  27       26       27 ar
  28       26       28 ar
  29       25       29 ar
  30       29       30 ar
  31       30       22 ar
  32        8       31 ar
  33       31       32 ar
  34       32        5 ar
  35        1       33 1
  36        1       34 1
  37        1       35 1
  38        2       36 1
  39        3       37 1
  40        3       38 1
  41        3       39 1
  42        6       40 1
  43        7       41 1
  44       10       42 1
  45       10       43 1
  46       10       44 1
  47       14       45 1
  48       16       46 1
  49       16       47 1
  50       17       48 1
  51       17       49 1
  52       23       50 1
  53       24       51 1
  54       29       52 1
  55       30       53 1
  56       31       54 1
  57       32       55 1

@<TRIPOS>MOLECULE

  55   57
SMALL
USER_CHARGES
@<TRIPOS>ATOM
   1 C1          -2.3561     7.7904     2.1747 C.3          1    LIG   0.0000
   2 C2          -2.0629     6.3038     2.2950 C.3          1    LIG   0.0000
   3 C3          -3.2817     5.5909     2.8577 C.3          1    LIG   0.0000
   4 O4          -1.7563     5.7766     1.0126 O.3          1    LIG   0.0000
   5 C5          -1.0806     4.6080     1.0112 C.ar         1    LIG   0.0000
   6 C6          -0.7381     4.0127     2.2209 C.ar         1    LIG   0.0000
   7 C7          -0.0435     2.8074     2.2102 C.ar         1    LIG   0.0000
   8 C8           0.2997     2.2129     1.0000 C.ar         1    LIG   0.0000
   9 N9           1.0000     1.0000     1.0000 N.am         1    LIG   0.0000
  10 C10          0.2650    -0.2731     1.0000 C.3          1    LIG   0.0000
  11 C11          2.3700     1.0000     1.0000 C.2          1    LIG   0.0000
  12 O12          2.9700     2.0392     1.0000 O.2          1    LIG   0.0000
  13 C13          3.0948    -0.2554     1.0000 C.2          1    LIG   0.0000
  14 C14          3.4965    -0.9549    -0.0969 C.2          1    LIG   0.0000
  15 N15          4.1346    -2.0610     0.3735 N.pl3        1    LIG   0.0000
  16 C16          4.7378    -3.1027    -0.4696 C.3          1    LIG   0.0000
  17 C17          3.7058    -4.1804    -0.7595 C.3          1    LIG   0.0000
  18 C18          4.3297    -5.2578    -1.6316 C.1          1    LIG   0.0000
  19 N19          4.7976    -6.0658    -2.2856 N.1          1    LIG   0.0000
  20 N20          4.1277    -2.0477     1.6869 N.2          1    LIG   0.0000
  21 C21          3.5118    -0.9776     2.1328 C.2          1    LIG   0.0000
  22 C22          3.3055    -0.6138     3.5218 C.ar         1    LIG   0.0000
  23 C23          4.3258    -0.8218     4.4450 C.ar         1    LIG   0.0000
  24 C24          4.1370    -0.4766     5.7790 C.ar         1    LIG   0.0000
  25 C25          2.9216     0.0741     6.1711 C.ar         1    LIG   0.0000
  26 N26          2.7252     0.4233     7.5128 N.2          1    LIG   1.0000
  27 O27          1.6718     0.9032     7.8651 O.co2        1    LIG   0.0000
  28 O28          3.6163     0.2438     8.3266 O.co2        1    LIG  -1.0000
  29 C29          1.8959     0.2851     5.2560 C.ar         1    LIG   0.0000
  30 C30          2.0937    -0.0619     3.9234 C.ar         1    LIG   0.0000
  31 C31         -0.0473     2.8158    -0.2043 C.ar         1    LIG   0.0000
  32 C32         -0.7418     4.0206    -0.2035 C.ar         1    LIG   0.0000
  33 H           -2.5721     8.1617     3.0777 H            1    LIG   0.0000
  34 H           -1.5543     8.2594     1.8044 H            1    LIG   0.0000
  35 H           -3.1349     7.9281     1.5627 H            1    LIG   0.0000
  36 H           -1.2841     6.1661     2.9069 H            1    LIG   0.0000
  37 H           -3.4977     5.9622     3.7607 H            1    LIG   0.0000
  38 H           -4.0605     5.7286     2.2457 H            1    LIG   0.0000
  39 H           -3.0888     4.6129     2.9368 H            1    LIG   0.0000
  40 H           -0.9880     4.4456     3.0870 H            1    LIG   0.0000
  41 H            0.2091     2.3682     3.0723 H            1    LIG   0.0000
  42 H            0.9148    -1.0331     1.0000 H            1    LIG   0.0000
  43 H           -0.3099    -0.3260     1.8165 H            1    LIG   0.0000
  44 H           -0.3099    -0.3260     0.1835 H            1    LIG   0.0000
  45 H            3.3520    -0.7061    -1.0546 H            1    LIG   0.0000
  46 H            5.5176    -3.5077     0.0077 H            1    LIG   0.0000
  47 H            5.0472    -2.6974    -1.3298 H            1    LIG   0.0000
  48 H            3.3964    -4.5856     0.1007 H            1    LIG   0.0000
  49 H            2.9260    -3.7754    -1.2368 H            1    LIG   0.0000
  50 H            5.1945    -1.2194     4.1494 H            1    LIG   0.0000
  51 H            4.8661    -0.6224     6.4477 H            1    LIG   0.0000
  52 H            1.0269     0.6815     5.5522 H            1    LIG   0.0000
  53 H            1.3650     0.0853     3.2546 H            1    LIG   0.0000
  54 H            0.2025     2.3831    -1.0705 H            1    LIG   0.0000
  55 H           -0.9947     4.4594    -1.0657 H            1    LIG   0.0000
@<TRIPOS>BOND
   1        1        2 1
   2        2        3 1
   3        2        4 1
   4        4        5 1
   5        5        6 ar
   6        6        7 ar
   7        7        8 ar
   8        8        9 1
   9        9       10 1
  10        9       11 am
  11       11       12 2
  12       11       13 1
  13       13       14 2
  14       14       15 1
  15       15       16 1
  16       16       17 1
  17       17       18 1
  18       18       19 3
  19       15       20 1
  20       20       21 2
  21       21       13 1
  22       21       22 1
  23       22       23 ar
  24       23       24 ar
  25       24       25 ar
  26       25       26 1
  27       26       27 ar
  28       26       28 ar
  29       25       29 ar
  30       29       30 ar
  31       30       22 ar
  32        8       31 ar
  33       31       32 ar
  34       32        5 ar
  35        1       33 1
  36        1       34 1
  37        1       35 1
  38        2       36 1
  39        3       37 1
  40        3       38 1
  41        3       39 1
  42        6       40 1
  43        7       41 1
  44       10       42 1
  45       10       43 1
  46       10       44 1
  47       14       45 1
  48       16       46 1
  49       16       47 1
  50       17       48 1
  51       17       49 1
  52       23       50 1
  53       24       51 1
  54       29       52 1
  55       30       53 1
  56       31       54 1
  57       32       55 1

@<TRIPOS>MOLECULE

  55   57
SMALL
USER_CHARGES
@<TRIPOS>ATOM
   1 C1          -3.2036     7.3033    -0.1450 C.3          1    LIG   0.0000
   2 C2          -2.0616     6.3078    -0.2684 C.3          1    LIG   0.0000
   3 C3          -0.8363     7.0094    -0.8311 C.3          1    LIG   0.0000
   4 O4          -1.7563     5.7766     1.0126 O.3          1    LIG   0.0000
   5 C5          -1.0806     4.6080     1.0112 C.ar         1    LIG   0.0000
   6 C6          -0.7381     4.0127     2.2209 C.ar         1    LIG   0.0000
   7 C7          -0.0435     2.8074     2.2102 C.ar         1    LIG   0.0000
   8 C8           0.2997     2.2129     1.0000 C.ar         1    LIG   0.0000
   9 N9           1.0000     1.0000     1.0000 N.am         1    LIG   0.0000
  10 C10          0.2650    -0.2731     1.0000 C.3          1    LIG   0.0000
  11 C11          2.3700     1.0000     1.0000 C.2          1    LIG   0.0000
  12 O12          2.9700     2.0392     1.0000 O.2          1    LIG   0.0000
  13 C13          3.0948    -0.2554     1.0000 C.2          1    LIG   0.0000
  14 C14          3.4965    -0.9549    -0.0969 C.2          1    LIG   0.0000
  15 N15          4.1346    -2.0610     0.3735 N.pl3        1    LIG   0.0000
  16 C16          4.7378    -3.1027    -0.4696 C.3          1    LIG   0.0000
  17 C17          3.7058    -4.1804    -0.7595 C.3          1    LIG   0.0000
  18 C18          4.3297    -5.2578    -1.6316 C.1          1    LIG   0.0000
  19 N19          4.7976    -6.0658    -2.2856 N.1          1    LIG   0.0000
  20 N20          4.1277    -2.0477     1.6869 N.2          1    LIG   0.0000
  21 C21          3.5118    -0.9776     2.1328 C.2          1    LIG   0.0000
  22 C22          3.3055    -0.6138     3.5218 C.ar         1    LIG   0.0000
  23 C23          4.3258    -0.8218     4.4450 C.ar         1    LIG   0.0000
  24 C24          4.1370    -0.4766     5.7790 C.ar         1    LIG   0.0000
  25 C25          2.9216     0.0741     6.1711 C.ar         1    LIG   0.0000
  26 N26          2.7252     0.4233     7.5128 N.2          1    LIG   1.0000
  27 O27          1.6718     0.9032     7.8651 O.co2        1    LIG   0.0000
  28 O28          3.6163     0.2438     8.3266 O.co2        1    LIG  -1.0000
  29 C29          1.8959     0.2851     5.2560 C.ar         1    LIG   0.0000
  30 C30          2.0937    -0.0619     3.9234 C.ar         1    LIG   0.0000
  31 C31         -0.0473     2.8158    -0.2043 C.ar         1    LIG   0.0000
  32 C32         -0.7418     4.0206    -0.2035 C.ar         1    LIG   0.0000
  33 H           -3.4186     7.6774    -1.0471 H            1    LIG   0.0000
  34 H           -4.0097     6.8417     0.2252 H            1    LIG   0.0000
  35 H           -2.9337     8.0458     0.4681 H            1    LIG   0.0000
  36 H           -2.3315     5.5652    -0.8815 H            1    LIG   0.0000
  37 H           -1.0513     7.3835    -1.7332 H            1    LIG   0.0000
  38 H           -0.5664     7.7519    -0.2180 H            1    LIG   0.0000
  39 H           -0.0850     6.3545    -0.9123 H            1    LIG   0.0000
  40 H           -0.9880     4.4456     3.0870 H            1    LIG   0.0000
  41 H            0.2091     2.3682     3.0723 H            1    LIG   0.0000
  42 H            0.9148    -1.0331     1.0000 H            1    LIG   0.0000
  43 H           -0.3099    -0.3260     1.8165 H            1    LIG   0.0000
  44 H           -0.3099    -0.3260     0.1835 H            1    LIG   0.0000
  45 H            3.3520    -0.7061    -1.0546 H            1    LIG   0.0000
  46 H            5.5176    -3.5077     0.0077 H            1    LIG   0.0000
  47 H            5.0472    -2.6974    -1.3298 H            1    LIG   0.0000
  48 H            3.3964    -4.5856     0.1007 H            1    LIG   0.0000
  49 H            2.9260    -3.7754    -1.2368 H            1    LIG   0.0000
  50 H            5.1945    -1.2194     4.1494 H            1    LIG   0.0000
  51 H            4.8661    -0.6224     6.4477 H            1    LIG   0.0000
  52 H            1.0269     0.6815     5.5522 H            1    LIG   0.0000
  53 H            1.3650     0.0853     3.2546 H            1    LIG   0.0000
  54 H            0.2025     2.3831    -1.0705 H            1    LIG   0.0000
  55 H           -0.9947     4.4594    -1.0657 H            1    LIG   0.0000
@<TRIPOS>BOND
   1        1        2 1
   2        2        3 1
   3        2        4 1
   4        4        5 1
   5        5        6 ar
   6        6        7 ar
   7        7        8 ar
   8        8        9 1
   9        9       10 1
  10        9       11 am
  11       11       12 2
  12       11       13 1
  13       13       14 2
  14       14       15 1
  15       15       16 1
  16       16       17 1
  17       17       18 1
  18       18       19 3
  19       15       20 1
  20       20       21 2
  21       21       13 1
  22       21       22 1
  23       22       23 ar
  24       23       24 ar
  25       24       25 ar
  26       25       26 1
  27       26       27 ar
  28       26       28 ar
  29       25       29 ar
  30       29       30 ar
  31       30       22 ar
  32        8       31 ar
  33       31       32 ar
  34       32        5 ar
  35        1       33 1
  36        1       34 1
  37        1       35 1
  38        2       36 1
  39        3       37 1
  40        3       38 1
  41        3       39 1
  42        6       40 1
  43        7       41 1
  44       10       42 1
  45       10       43 1
  46       10       44 1
  47       14       45 1
  48       16       46 1
  49       16       47 1
  50       17       48 1
  51       17       49 1
  52       23       50 1
  53       24       51 1
  54       29       52 1
  55       30       53 1
  56       31       54 1
  57       32       55 1

@<TRIPOS>MOLECULE

  55   57
SMALL
USER_CHARGES
@<TRIPOS>ATOM
   1 C1          -2.3561     7.7904     2.1747 C.3          1    LIG   0.0000
   2 C2          -2.0629     6.3038     2.2950 C.3          1    LIG   0.0000
   3 C3          -3.2817     5.5909     2.8577 C.3          1    LIG   0.0000
   4 O4          -1.7563     5.7766     1.0126 O.3          1    LIG   0.0000
   5 C5          -1.0806     4.6080     1.0112 C.ar         1    LIG   0.0000
   6 C6          -0.7381     4.0127     2.2209 C.ar         1    LIG   0.0000
   7 C7          -0.0435     2.8074     2.2102 C.ar         1    LIG   0.0000
   8 C8           0.2997     2.2129     1.0000 C.ar         1    LIG   0.0000
   9 N9           1.0000     1.0000     1.0000 N.am         1    LIG   0.0000
  10 C10          0.2650    -0.2731     1.0000 C.3          1    LIG   0.0000
  11 C11          2.3700     1.0000     1.0000 C.2          1    LIG   0.0000
  12 O12          2.9700     2.0392     1.0000 O.2          1    LIG   0.0000
  13 C13          3.0948    -0.2554     1.0000 C.2          1    LIG   0.0000
  14 C14          3.4997    -0.9530     2.0969 C.2          1    LIG   0.0000
  15 N15          4.1386    -2.0587     1.6265 N.pl3        1    LIG   0.0000
  16 C16          4.7391    -3.1019     2.4696 C.3          1    LIG   0.0000
  17 C17          3.7039    -4.1760     2.7610 C.3          1    LIG   0.0000
  18 C18          4.3250    -5.2550     3.6331 C.1          1    LIG   0.0000
  19 N19          4.7908    -6.0642     4.2871 N.1          1    LIG   0.0000
  20 N20          4.1306    -2.0461     0.3131 N.2          1    LIG   0.0000
  21 C21          3.5118    -0.9776    -0.1328 C.2          1    LIG   0.0000
  22 C22          3.2999    -0.6170    -1.5218 C.ar         1    LIG   0.0000
  23 C23          4.3170    -0.8259    -2.4484 C.ar         1    LIG   0.0000
  24 C24          4.1231    -0.4829    -3.7822 C.ar         1    LIG   0.0000
  25 C25          2.9067     0.0685    -4.1704 C.ar         1    LIG   0.0000
  26 N26          2.7056     0.4163    -5.5117 N.2          1    LIG   1.0000
  27 O27          1.6512     0.8966    -5.8606 O.co2        1    LIG   0.0000
  28 O28          3.5934     0.2350    -6.3286 O.co2        1    LIG  -1.0000
  29 C29          1.8847     0.2815    -3.2516 C.ar         1    LIG   0.0000
  30 C30          2.0867    -0.0657    -1.9197 C.ar         1    LIG   0.0000
  31 C31         -0.0473     2.8158    -0.2043 C.ar         1    LIG   0.0000
  32 C32         -0.7418     4.0206    -0.2035 C.ar         1    LIG   0.0000
  33 H           -2.5721     8.1617     3.0777 H            1    LIG   0.0000
  34 H           -1.5543     8.2594     1.8044 H            1    LIG   0.0000
  35 H           -3.1349     7.9281     1.5627 H            1    LIG   0.0000
  36 H           -1.2841     6.1661     2.9069 H            1    LIG   0.0000
  37 H           -3.4977     5.9622     3.7607 H            1    LIG   0.0000
  38 H           -4.0605     5.7286     2.2457 H            1    LIG   0.0000
  39 H           -3.0888     4.6129     2.9368 H            1    LIG   0.0000
  40 H           -0.9880     4.4456     3.0870 H            1    LIG   0.0000
  41 H            0.2091     2.3682     3.0723 H            1    LIG   0.0000
  42 H            0.9148    -1.0331     1.0000 H            1    LIG   0.0000
  43 H           -0.3099    -0.3260     1.8165 H            1    LIG   0.0000
  44 H           -0.3099    -0.3260     0.1835 H            1    LIG   0.0000
  45 H            3.3565    -0.7035     3.0546 H            1    LIG   0.0000
  46 H            5.0507    -2.6972     3.3294 H            1    LIG   0.0000
  47 H            5.5172    -3.5097     1.9918 H            1    LIG   0.0000
  48 H            2.9258    -3.7682     3.2388 H            1    LIG   0.0000
  49 H            3.3923    -4.5806     1.9013 H            1    LIG   0.0000
  50 H            5.1869    -1.2224    -2.1553 H            1    LIG   0.0000
  51 H            4.8492    -0.6309    -4.4537 H            1    LIG   0.0000
  52 H            1.0153     0.6793    -3.5448 H            1    LIG   0.0000
  53 H            1.3599     0.0812    -1.2487 H            1    LIG   0.0000
  54 H            0.2025     2.3831    -1.0705 H            1    LIG   0.0000
  55 H           -0.9947     4.4594    -1.0657 H            1    LIG   0.0000
@<TRIPOS>BOND
   1        1        2 1
   2        2        3 1
   3        2        4 1
   4        4        5 1
   5        5        6 ar
   6        6        7 ar
   7        7        8 ar
   8        8        9 1
   9        9       10 1
  10        9       11 am
  11       11       12 2
  12       11       13 1
  13       13       14 2
  14       14       15 1
  15       15       16 1
  16       16       17 1
  17       17       18 1
  18       18       19 3
  19       15       20 1
  20       20       21 2
  21       21       13 1
  22       21       22 1
  23       22       23 ar
  24       23       24 ar
  25       24       25 ar
  26       25       26 1
  27       26       27 ar
  28       26       28 ar
  29       25       29 ar
  30       29       30 ar
  31       30       22 ar
  32        8       31 ar
  33       31       32 ar
  34       32        5 ar
  35        1       33 1
  36        1       34 1
  37        1       35 1
  38        2       36 1
  39        3       37 1
  40        3       38 1
  41        3       39 1
  42        6       40 1
  43        7       41 1
  44       10       42 1
  45       10       43 1
  46       10       44 1
  47       14       45 1
  48       16       46 1
  49       16       47 1
  50       17       48 1
  51       17       49 1
  52       23       50 1
  53       24       51 1
  54       29       52 1
  55       30       53 1
  56       31       54 1
  57       32       55 1

@<TRIPOS>MOLECULE

  55   57
SMALL
USER_CHARGES
@<TRIPOS>ATOM
   1 C1          -3.2036     7.3033    -0.1450 C.3          1    LIG   0.0000
   2 C2          -2.0616     6.3078    -0.2684 C.3          1    LIG   0.0000
   3 C3          -0.8363     7.0094    -0.8311 C.3          1    LIG   0.0000
   4 O4          -1.7563     5.7766     1.0126 O.3          1    LIG   0.0000
   5 C5          -1.0806     4.6080     1.0112 C.ar         1    LIG   0.0000
   6 C6          -0.7381     4.0127     2.2209 C.ar         1    LIG   0.0000
   7 C7          -0.0435     2.8074     2.2102 C.ar         1    LIG   0.0000
   8 C8           0.2997     2.2129     1.0000 C.ar         1    LIG   0.0000
   9 N9           1.0000     1.0000     1.0000 N.am         1    LIG   0.0000
  10 C10          0.2650    -0.2731     1.0000 C.3          1    LIG   0.0000
  11 C11          2.3700     1.0000     1.0000 C.2          1    LIG   0.0000
  12 O12          2.9700     2.0392     1.0000 O.2          1    LIG   0.0000
  13 C13          3.0948    -0.2554     1.0000 C.2          1    LIG   0.0000
  14 C14          3.4997    -0.9530     2.0969 C.2          1    LIG   0.0000
  15 N15          4.1386    -2.0587     1.6265 N.pl3        1    LIG   0.0000
  16 C16          4.7391    -3.1019     2.4696 C.3          1    LIG   0.0000
  17 C17          3.7039    -4.1760     2.7610 C.3          1    LIG   0.0000
  18 C18          4.3250    -5.2550     3.6331 C.1          1    LIG   0.0000
  19 N19          4.7908    -6.0642     4.2871 N.1          1    LIG   0.0000
  20 N20          4.1306    -2.0461     0.3131 N.2          1    LIG   0.0000
  21 C21          3.5118    -0.9776    -0.1328 C.2          1    LIG   0.0000
  22 C22          3.2999    -0.6170    -1.5218 C.ar         1    LIG   0.0000
  23 C23          4.3170    -0.8259    -2.4484 C.ar         1    LIG   0.0000
  24 C24          4.1231    -0.4829    -3.7822 C.ar         1    LIG   0.0000
  25 C25          2.9067     0.0685    -4.1704 C.ar         1    LIG   0.0000
  26 N26          2.7056     0.4163    -5.5117 N.2          1    LIG   1.0000
  27 O27          1.6512     0.8966    -5.8606 O.co2        1    LIG   0.0000
  28 O28          3.5934     0.2350    -6.3286 O.co2        1    LIG  -1.0000
  29 C29          1.8847     0.2815    -3.2516 C.ar         1    LIG   0.0000
  30 C30          2.0867    -0.0657    -1.9197 C.ar         1    LIG   0.0000
  31 C31         -0.0473     2.8158    -0.2043 C.ar         1    LIG   0.0000
  32 C32         -0.7418     4.0206    -0.2035 C.ar         1    LIG   0.0000
  33 H           -3.4186     7.6774    -1.0471 H            1    LIG   0.0000
  34 H           -4.0097     6.8417     0.2252 H            1    LIG   0.0000
  35 H           -2.9337     8.0458     0.4681 H            1    LIG   0.0000
  36 H           -2.3315     5.5652    -0.8815 H            1    LIG   0.0000
  37 H           -1.0513     7.3835    -1.7332 H            1    LIG   0.0000
  38 H           -0.5664     7.7519    -0.2180 H            1    LIG   0.0000
  39 H           -0.0850     6.3545    -0.9123 H            1    LIG   0.0000
  40 H           -0.9880     4.4456     3.0870 H            1    LIG   0.0000
  41 H            0.2091     2.3682     3.0723 H            1    LIG   0.0000
  42 H            0.9148    -1.0331     1.0000 H            1    LIG   0.0000
  43 H           -0.3099    -0.3260     1.8165 H            1    LIG   0.0000
  44 H           -0.3099    -0.3260     0.1835 H            1    LIG   0.0000
  45 H            3.3565    -0.7035     3.0546 H            1    LIG   0.0000
  46 H            5.0507    -2.6972     3.3294 H            1    LIG   0.0000
  47 H            5.5172    -3.5097     1.9918 H            1    LIG   0.0000
  48 H            2.9258    -3.7682     3.2388 H            1    LIG   0.0000
  49 H            3.3923    -4.5806     1.9013 H            1    LIG   0.0000
  50 H            5.1869    -1.2224    -2.1553 H            1    LIG   0.0000
  51 H            4.8492    -0.6309    -4.4537 H            1    LIG   0.0000
  52 H            1.0153     0.6793    -3.5448 H            1    LIG   0.0000
  53 H            1.3599     0.0812    -1.2487 H            1    LIG   0.0000
  54 H            0.2025     2.3831    -1.0705 H            1    LIG   0.0000
  55 H           -0.9947     4.4594    -1.0657 H            1    LIG   0.0000
@<TRIPOS>BOND
   1        1        2 1
   2        2        3 1
   3        2        4 1
   4        4        5 1
   5        5        6 ar
   6        6        7 ar
   7        7        8 ar
   8        8        9 1
   9        9       10 1
  10        9       11 am
  11       11       12 2
  12       11       13 1
  13       13       14 2
  14       14       15 1
  15       15       16 1
  16       16       17 1
  17       17       18 1
  18       18       19 3
  19       15       20 1
  20       20       21 2
  21       21       13 1
  22       21       22 1
  23       22       23 ar
  24       23       24 ar
  25       24       25 ar
  26       25       26 1
  27       26       27 ar
  28       26       28 ar
  29       25       29 ar
  30       29       30 ar
  31       30       22 ar
  32        8       31 ar
  33       31       32 ar
  34       32        5 ar
  35        1       33 1
  36        1       34 1
  37        1       35 1
  38        2       36 1
  39        3       37 1
  40        3       38 1
  41        3       39 1
  42        6       40 1
  43        7       41 1
  44       10       42 1
  45       10       43 1
  46       10       44 1
  47       14       45 1
  48       16       46 1
  49       16       47 1
  50       17       48 1
  51       17       49 1
  52       23       50 1
  53       24       51 1
  54       29       52 1
  55       30       53 1
  56       31       54 1
  57       32       55 1

@<TRIPOS>MOLECULE

  55   57
SMALL
USER_CHARGES
@<TRIPOS>ATOM
   1 C1          -0.8382     7.0038     2.8611 C.3          1    LIG   0.0000
   2 C2          -2.0629     6.3038     2.2950 C.3          1    LIG   0.0000
   3 C3          -3.2048     7.2997     2.1735 C.3          1    LIG   0.0000
   4 O4          -1.7563     5.7766     1.0126 O.3          1    LIG   0.0000
   5 C5          -1.0806     4.6080     1.0112 C.ar         1    LIG   0.0000
   6 C6          -0.7381     4.0127     2.2209 C.ar         1    LIG   0.0000
   7 C7          -0.0435     2.8074     2.2102 C.ar         1    LIG   0.0000
   8 C8           0.2997     2.2129     1.0000 C.ar         1    LIG   0.0000
   9 N9           1.0000     1.0000     1.0000 N.am         1    LIG   0.0000
  10 C10          0.2650    -0.2731     1.0000 C.3          1    LIG   0.0000
  11 C11          2.3700     1.0000     1.0000 C.2          1    LIG   0.0000
  12 O12          2.9700     2.0392     1.0000 O.2          1    LIG   0.0000
  13 C13          3.0948    -0.2554     1.0000 C.2          1    LIG   0.0000
  14 C14          3.4997    -0.9530     2.0969 C.2          1    LIG   0.0000
  15 N15          4.1386    -2.0587     1.6265 N.pl3        1    LIG   0.0000
  16 C16          4.7391    -3.1019     2.4696 C.3          1    LIG   0.0000
  17 C17          3.7039    -4.1760     2.7610 C.3          1    LIG   0.0000
  18 C18          4.3250    -5.2550     3.6331 C.1          1    LIG   0.0000
  19 N19          4.7908    -6.0642     4.2871 N.1          1    LIG   0.0000
  20 N20          4.1306    -2.0461     0.3131 N.2          1    LIG   0.0000
  21 C21          3.5118    -0.9776    -0.1328 C.2          1    LIG   0.0000
  22 C22          3.2999    -0.6170    -1.5218 C.ar         1    LIG   0.0000
  23 C23          2.9698    -1.6047    -2.4450 C.ar         1    LIG   0.0000
  24 C24          2.7652    -1.2686    -3.7790 C.ar         1    LIG   0.0000
  25 C25          2.8961     0.0593    -4.1711 C.ar         1    LIG   0.0000
  26 N26          2.6918     0.4040    -5.5128 N.2          1    LIG   1.0000
  27 O27          2.8029     1.5563    -5.8651 O.co2        1    LIG   0.0000
  28 O28          2.4017    -0.4574    -6.3266 O.co2        1    LIG  -1.0000
  29 C29          3.2262     1.0532    -3.2560 C.ar         1    LIG   0.0000
  30 C30          3.4278     0.7083    -1.9234 C.ar         1    LIG   0.0000
  31 C31         -0.0473     2.8158    -0.2043 C.ar         1    LIG   0.0000
  32 C32         -0.7418     4.0206    -0.2035 C.ar         1    LIG   0.0000
  33 H           -1.0542     7.3751     3.7642 H            1    LIG   0.0000
  34 H           -0.0870     6.3485     2.9410 H            1    LIG   0.0000
  35 H           -0.5677     7.7481     2.2506 H            1    LIG   0.0000
  36 H           -2.3334     5.5594     2.9055 H            1    LIG   0.0000
  37 H           -3.4207     7.6710     3.0765 H            1    LIG   0.0000
  38 H           -2.9343     8.0441     1.5630 H            1    LIG   0.0000
  39 H           -4.0105     6.8392     1.8010 H            1    LIG   0.0000
  40 H           -0.9880     4.4456     3.0870 H            1    LIG   0.0000
  41 H            0.2091     2.3682     3.0723 H            1    LIG   0.0000
  42 H            0.9148    -1.0331     1.0000 H            1    LIG   0.0000
  43 H           -0.3099    -0.3260     1.8165 H            1    LIG   0.0000
  44 H           -0.3099    -0.3260     0.1835 H            1    LIG   0.0000
  45 H            3.3565    -0.7035     3.0546 H            1    LIG   0.0000
  46 H            5.0507    -2.6972     3.3294 H            1    LIG   0.0000
  47 H            5.5172    -3.5097     1.9918 H            1    LIG   0.0000
  48 H            2.9258    -3.7682     3.2388 H            1    LIG   0.0000
  49 H            3.3923    -4.5806     1.9013 H            1    LIG   0.0000
  50 H            2.8798    -2.5558    -2.1494 H            1    LIG   0.0000
  51 H            2.5270    -1.9729    -4.4477 H            1    LIG   0.0000
  52 H            3.3174     2.0039    -3.5522 H            1    LIG   0.0000
  53 H            3.6646     1.4130    -1.2546 H            1    LIG   0.0000
  54 H            0.2025     2.3831    -1.0705 H            1    LIG   0.0000
  55 H           -0.9947     4.4594    -1.0657 H            1    LIG   0.0000
@<TRIPOS>BOND
   1        1        2 1
   2        2        3 1
   3        2        4 1
   4        4        5 1
   5        5        6 ar
   6        6        7 ar
   7        7        8 ar
   8        8        9 1
   9        9       10 1
  10        9       11 am
  11       11       12 2
  12       11       13 1
  13       13       14 2
  14       14       15 1
  15       15       16 1
  16       16       17 1
  17       17       18 1
  18       18       19 3
  19       15       20 1
  20       20       21 2
  21       21       13 1
  22       21       22 1
  23       22       23 ar
  24       23       24 ar
  25       24       25 ar
  26       25       26 1
  27       26       27 ar
  28       26       28 ar
  29       25       29 ar
  30       29       30 ar
  31       30       22 ar
  32        8       31 ar
  33       31       32 ar
  34       32        5 ar
  35        1       33 1
  36        1       34 1
  37        1       35 1
  38        2       36 1
  39        3       37 1
  40        3       38 1
  41        3       39 1
  42        6       40 1
  43        7       41 1
  44       10       42 1
  45       10       43 1
  46       10       44 1
  47       14       45 1
  48       16       46 1
  49       16       47 1
  50       17       48 1
  51       17       49 1
  52       23       50 1
  53       24       51 1
  54       29       52 1
  55       30       53 1
  56       31       54 1
  57       32       55 1

@<TRIPOS>MOLECULE

  55   57
SMALL
USER_CHARGES
@<TRIPOS>ATOM
   1 C1          -3.2798     5.5966    -0.8345 C.3          1    LIG   0.0000
   2 C2          -2.0616     6.3078    -0.2684 C.3          1    LIG   0.0000
   3 C3          -2.3549     7.7940    -0.1438 C.3          1    LIG   0.0000
   4 O4          -1.7563     5.7766     1.0126 O.3          1    LIG   0.0000
   5 C5          -1.0806     4.6080     1.0112 C.ar         1    LIG   0.0000
   6 C6          -0.7381     4.0127     2.2209 C.ar         1    LIG   0.0000
   7 C7          -0.0435     2.8074     2.2102 C.ar         1    LIG   0.0000
   8 C8           0.2997     2.2129     1.0000 C.ar         1    LIG   0.0000
   9 N9           1.0000     1.0000     1.0000 N.am         1    LIG   0.0000
  10 C10          0.2650    -0.2731     1.0000 C.3          1    LIG   0.0000
  11 C11          2.3700     1.0000     1.0000 C.2          1    LIG   0.0000
  12 O12          2.9700     2.0392     1.0000 O.2          1    LIG   0.0000
  13 C13          3.0948    -0.2554     1.0000 C.2          1    LIG   0.0000
  14 C14          3.4997    -0.9530     2.0969 C.2          1    LIG   0.0000
  15 N15          4.1386    -2.0587     1.6265 N.pl3        1    LIG   0.0000
  16 C16          4.7391    -3.1019     2.4696 C.3          1    LIG   0.0000
  17 C17          3.7039    -4.1760     2.7610 C.3          1    LIG   0.0000
  18 C18          4.3250    -5.2550     3.6331 C.1          1    LIG   0.0000
  19 N19          4.7908    -6.0642     4.2871 N.1          1    LIG   0.0000
  20 N20          4.1306    -2.0461     0.3131 N.2          1    LIG   0.0000
  21 C21          3.5118    -0.9776    -0.1328 C.2          1    LIG   0.0000
  22 C22          3.2999    -0.6170    -1.5218 C.ar         1    LIG   0.0000
  23 C23          2.9698    -1.6047    -2.4450 C.ar         1    LIG   0.0000
  24 C24          2.7652    -1.2686    -3.7790 C.ar         1    LIG   0.0000
  25 C25          2.8961     0.0593    -4.1711 C.ar         1    LIG   0.0000
  26 N26          2.6918     0.4040    -5.5128 N.2          1    LIG   1.0000
  27 O27          2.8029     1.5563    -5.8651 O.co2        1    LIG   0.0000
  28 O28          2.4017    -0.4574    -6.3266 O.co2        1    LIG  -1.0000
  29 C29          3.2262     1.0532    -3.2560 C.ar         1    LIG   0.0000
  30 C30          3.4278     0.7083    -1.9234 C.ar         1    LIG   0.0000
  31 C31         -0.0473     2.8158    -0.2043 C.ar         1    LIG   0.0000
  32 C32         -0.7418     4.0206    -0.2035 C.ar         1    LIG   0.0000
  33 H           -3.4949     5.9707    -1.7367 H            1    LIG   0.0000
  34 H           -3.0869     4.6188    -0.9165 H            1    LIG   0.0000
  35 H           -4.0593     5.7324    -0.2229 H            1    LIG   0.0000
  36 H           -1.2822     6.1719    -0.8800 H            1    LIG   0.0000
  37 H           -2.5700     8.1681    -1.0459 H            1    LIG   0.0000
  38 H           -3.1344     7.9298     0.4678 H            1    LIG   0.0000
  39 H           -1.5535     8.2618     0.2287 H            1    LIG   0.0000
  40 H           -0.9880     4.4456     3.0870 H            1    LIG   0.0000
  41 H            0.2091     2.3682     3.0723 H            1    LIG   0.0000
  42 H            0.9148    -1.0331     1.0000 H            1    LIG   0.0000
  43 H           -0.3099    -0.3260     1.8165 H            1    LIG   0.0000
  44 H           -0.3099    -0.3260     0.1835 H            1    LIG   0.0000
  45 H            3.3565    -0.7035     3.0546 H            1    LIG   0.0000
  46 H            5.0507    -2.6972     3.3294 H            1    LIG   0.0000
  47 H            5.5172    -3.5097     1.9918 H            1    LIG   0.0000
  48 H            2.9258    -3.7682     3.2388 H            1    LIG   0.0000
  49 H            3.3923    -4.5806     1.9013 H            1    LIG   0.0000
  50 H            2.8798    -2.5558    -2.1494 H            1    LIG   0.0000
  51 H            2.5270    -1.9729    -4.4477 H            1    LIG   0.0000
  52 H            3.3174     2.0039    -3.5522 H            1    LIG   0.0000
  53 H            3.6646     1.4130    -1.2546 H            1    LIG   0.0000
  54 H            0.2025     2.3831    -1.0705 H            1    LIG   0.0000
  55 H           -0.9947     4.4594    -1.0657 H            1    LIG   0.0000
@<TRIPOS>BOND
   1        1        2 1
   2        2        3 1
   3        2        4 1
   4        4        5 1
   5        5        6 ar
   6        6        7 ar
   7        7        8 ar
   8        8        9 1
   9        9       10 1
  10        9       11 am
  11       11       12 2
  12       11       13 1
  13       13       14 2
  14       14       15 1
  15       15       16 1
  16       16       17 1
  17       17       18 1
  18       18       19 3
  19       15       20 1
  20       20       21 2
  21       21       13 1
  22       21       22 1
  23       22       23 ar
  24       23       24 ar
  25       24       25 ar
  26       25       26 1
  27       26       27 ar
  28       26       28 ar
  29       25       29 ar
  30       29       30 ar
  31       30       22 ar
  32        8       31 ar
  33       31       32 ar
  34       32        5 ar
  35        1       33 1
  36        1       34 1
  37        1       35 1
  38        2       36 1
  39        3       37 1
  40        3       38 1
  41        3       39 1
  42        6       40 1
  43        7       41 1
  44       10       42 1
  45       10       43 1
  46       10       44 1
  47       14       45 1
  48       16       46 1
  49       16       47 1
  50       17       48 1
  51       17       49 1
  52       23       50 1
  53       24       51 1
  54       29       52 1
  55       30       53 1
  56       31       54 1
  57       32       55 1

@<TRIPOS>MOLECULE

  55   57
SMALL
USER_CHARGES
@<TRIPOS>ATOM
   1 C1          -0.8382     7.0038     2.8611 C.3          1    LIG   0.0000
   2 C2          -2.0629     6.3038     2.2950 C.3          1    LIG   0.0000
   3 C3          -3.2048     7.2997     2.1735 C.3          1    LIG   0.0000
   4 O4          -1.7563     5.7766     1.0126 O.3          1    LIG   0.0000
   5 C5          -1.0806     4.6080     1.0112 C.ar         1    LIG   0.0000
   6 C6          -0.7381     4.0127     2.2209 C.ar         1    LIG   0.0000
   7 C7          -0.0435     2.8074     2.2102 C.ar         1    LIG   0.0000
   8 C8           0.2997     2.2129     1.0000 C.ar         1    LIG   0.0000
   9 N9           1.0000     1.0000     1.0000 N.am         1    LIG   0.0000
  10 C10          0.2650    -0.2731     1.0000 C.3          1    LIG   0.0000
  11 C11          2.3700     1.0000     1.0000 C.2          1    LIG   0.0000
  12 O12          2.9700     2.0392     1.0000 O.2          1    LIG   0.0000
  13 C13          3.0948    -0.2554     1.0000 C.2          1    LIG   0.0000
  14 C14          3.4997    -0.9530     2.0969 C.2          1    LIG   0.0000
  15 N15          4.1386    -2.0587     1.6265 N.pl3        1    LIG   0.0000
  16 C16          4.7391    -3.1019     2.4696 C.3          1    LIG   0.0000
  17 C17          6.1884    -2.7471     2.7595 C.3          1    LIG   0.0000
  18 C18          6.8095    -3.8260     3.6316 C.1          1    LIG   0.0000
  19 N19          7.2753    -4.6353     4.2856 N.1          1    LIG   0.0000
  20 N20          4.1306    -2.0461     0.3131 N.2          1    LIG   0.0000
  21 C21          3.5118    -0.9776    -0.1328 C.2          1    LIG   0.0000
  22 C22          3.2999    -0.6170    -1.5218 C.ar         1    LIG   0.0000
  23 C23          4.3170    -0.8259    -2.4484 C.ar         1    LIG   0.0000
  24 C24          4.1231    -0.4829    -3.7822 C.ar         1    LIG   0.0000
  25 C25          2.9067     0.0685    -4.1704 C.ar         1    LIG   0.0000
  26 N26          2.7056     0.4163    -5.5117 N.2          1    LIG   1.0000
  27 O27          1.6512     0.8966    -5.8606 O.co2        1    LIG   0.0000
  28 O28          3.5934     0.2350    -6.3286 O.co2        1    LIG  -1.0000
  29 C29          1.8847     0.2815    -3.2516 C.ar         1    LIG   0.0000
  30 C30          2.0867    -0.0657    -1.9197 C.ar         1    LIG   0.0000
  31 C31         -0.0473     2.8158    -0.2043 C.ar         1    LIG   0.0000
  32 C32         -0.7418     4.0206    -0.2035 C.ar         1    LIG   0.0000
  33 H           -1.0542     7.3751     3.7642 H            1    LIG   0.0000
  34 H           -0.0870     6.3485     2.9410 H            1    LIG   0.0000
  35 H           -0.5677     7.7481     2.2506 H            1    LIG   0.0000
  36 H           -2.3334     5.5594     2.9055 H            1    LIG   0.0000
  37 H           -3.4207     7.6710     3.0765 H            1    LIG   0.0000
  38 H           -2.9343     8.0441     1.5630 H            1    LIG   0.0000
  39 H           -4.0105     6.8392     1.8010 H            1    LIG   0.0000
  40 H           -0.9880     4.4456     3.0870 H            1    LIG   0.0000
  41 H            0.2091     2.3682     3.0723 H            1    LIG   0.0000
  42 H            0.9148    -1.0331     1.0000 H            1    LIG   0.0000
  43 H           -0.3099    -0.3260     1.8165 H            1    LIG   0.0000
  44 H           -0.3099    -0.3260     0.1835 H            1    LIG   0.0000
  45 H            3.3565    -0.7035     3.0546 H            1    LIG   0.0000
  46 H            4.6999    -3.9798     1.9923 H            1    LIG   0.0000
  47 H            4.2335    -3.1673     3.3298 H            1    LIG   0.0000
  48 H            6.6941    -2.6817     1.8993 H            1    LIG   0.0000
  49 H            6.2276    -1.8692     3.2368 H            1    LIG   0.0000
  50 H            5.1869    -1.2224    -2.1553 H            1    LIG   0.0000
  51 H            4.8492    -0.6309    -4.4537 H            1    LIG   0.0000
  52 H            1.0153     0.6793    -3.5448 H            1    LIG   0.0000
  53 H            1.3599     0.0812    -1.2487 H            1    LIG   0.0000
  54 H            0.2025     2.3831    -1.0705 H            1    LIG   0.0000
  55 H           -0.9947     4.4594    -1.0657 H            1    LIG   0.0000
@<TRIPOS>BOND
   1        1        2 1
   2        2        3 1
   3        2        4 1
   4        4        5 1
   5        5        6 ar
   6        6        7 ar
   7        7        8 ar
   8        8        9 1
   9        9       10 1
  10        9       11 am
  11       11       12 2
  12       11       13 1
  13       13       14 2
  14       14       15 1
  15       15       16 1
  16       16       17 1
  17       17       18 1
  18       18       19 3
  19       15       20 1
  20       20       21 2
  21       21       13 1
  22       21       22 1
  23       22       23 ar
  24       23       24 ar
  25       24       25 ar
  26       25       26 1
  27       26       27 ar
  28       26       28 ar
  29       25       29 ar
  30       29       30 ar
  31       30       22 ar
  32        8       31 ar
  33       31       32 ar
  34       32        5 ar
  35        1       33 1
  36        1       34 1
  37        1       35 1
  38        2       36 1
  39        3       37 1
  40        3       38 1
  41        3       39 1
  42        6       40 1
  43        7       41 1
  44       10       42 1
  45       10       43 1
  46       10       44 1
  47       14       45 1
  48       16       46 1
  49       16       47 1
  50       17       48 1
  51       17       49 1
  52       23       50 1
  53       24       51 1
  54       29       52 1
  55       30       53 1
  56       31       54 1
  57       32       55 1

@<TRIPOS>MOLECULE

  55   57
SMALL
USER_CHARGES
@<TRIPOS>ATOM
   1 C1          -3.2036     7.3033    -0.1450 C.3          1    LIG   0.0000
   2 C2          -2.0616     6.3078    -0.2684 C.3          1    LIG   0.0000
   3 C3          -0.8363     7.0094    -0.8311 C.3          1    LIG   0.0000
   4 O4          -1.7563     5.7766     1.0126 O.3          1    LIG   0.0000
   5 C5          -1.0806     4.6080     1.0112 C.ar         1    LIG   0.0000
   6 C6          -0.7381     4.0127     2.2209 C.ar         1    LIG   0.0000
   7 C7          -0.0435     2.8074     2.2102 C.ar         1    LIG   0.0000
   8 C8           0.2997     2.2129     1.0000 C.ar         1    LIG   0.0000
   9 N9           1.0000     1.0000     1.0000 N.am         1    LIG   0.0000
  10 C10          0.2650    -0.2731     1.0000 C.3          1    LIG   0.0000
  11 C11          2.3700     1.0000     1.0000 C.2          1    LIG   0.0000
  12 O12          2.9700     2.0392     1.0000 O.2          1    LIG   0.0000
  13 C13          3.0948    -0.2554     1.0000 C.2          1    LIG   0.0000
  14 C14          3.4997    -0.9530     2.0969 C.2          1    LIG   0.0000
  15 N15          4.1386    -2.0587     1.6265 N.pl3        1    LIG   0.0000
  16 C16          4.7391    -3.1019     2.4696 C.3          1    LIG   0.0000
  17 C17          6.1884    -2.7471     2.7595 C.3          1    LIG   0.0000
  18 C18          6.8095    -3.8260     3.6316 C.1          1    LIG   0.0000
  19 N19          7.2753    -4.6353     4.2856 N.1          1    LIG   0.0000
  20 N20          4.1306    -2.0461     0.3131 N.2          1    LIG   0.0000
  21 C21          3.5118    -0.9776    -0.1328 C.2          1    LIG   0.0000
  22 C22          3.2999    -0.6170    -1.5218 C.ar         1    LIG   0.0000
  23 C23          2.9698    -1.6047    -2.4450 C.ar         1    LIG   0.0000
  24 C24          2.7652    -1.2686    -3.7790 C.ar         1    LIG   0.0000
  25 C25          2.8961     0.0593    -4.1711 C.ar         1    LIG   0.0000
  26 N26          2.6918     0.4040    -5.5128 N.2          1    LIG   1.0000
  27 O27          2.8029     1.5563    -5.8651 O.co2        1    LIG   0.0000
  28 O28          2.4017    -0.4574    -6.3266 O.co2        1    LIG  -1.0000
  29 C29          3.2262     1.0532    -3.2560 C.ar         1    LIG   0.0000
  30 C30          3.4278     0.7083    -1.9234 C.ar         1    LIG   0.0000
  31 C31         -0.0473     2.8158    -0.2043 C.ar         1    LIG   0.0000
  32 C32         -0.7418     4.0206    -0.2035 C.ar         1    LIG   0.0000
  33 H           -3.4186     7.6774    -1.0471 H            1    LIG   0.0000
  34 H           -4.0097     6.8417     0.2252 H            1    LIG   0.0000
  35 H           -2.9337     8.0458     0.4681 H            1    LIG   0.0000
  36 H           -2.3315     5.5652    -0.8815 H            1    LIG   0.0000
  37 H           -1.0513     7.3835    -1.7332 H            1    LIG   0.0000
  38 H           -0.5664     7.7519    -0.2180 H            1    LIG   0.0000
  39 H           -0.0850     6.3545    -0.9123 H            1    LIG   0.0000
  40 H           -0.9880     4.4456     3.0870 H            1    LIG   0.0000
  41 H            0.2091     2.3682     3.0723 H            1    LIG   0.0000
  42 H            0.9148    -1.0331     1.0000 H            1    LIG   0.0000
  43 H           -0.3099    -0.3260     1.8165 H            1    LIG   0.0000
  44 H           -0.3099    -0.3260     0.1835 H            1    LIG   0.0000
  45 H            3.3565    -0.7035     3.0546 H            1    LIG   0.0000
  46 H            4.6999    -3.9798     1.9923 H            1    LIG   0.0000
  47 H            4.2335    -3.1673     3.3298 H            1    LIG   0.0000
  48 H            6.6941    -2.6817     1.8993 H            1    LIG   0.0000
  49 H            6.2276    -1.8692     3.2368 H            1    LIG   0.0000
  50 H            2.8798    -2.5558    -2.1494 H            1    LIG   0.0000
  51 H            2.5270    -1.9729    -4.4477 H            1    LIG   0.0000
  52 H            3.3174     2.0039    -3.5522 H            1    LIG   0.0000
  53 H            3.6646     1.4130    -1.2546 H            1    LIG   0.0000
  54 H            0.2025     2.3831    -1.0705 H            1    LIG   0.0000
  55 H           -0.9947     4.4594    -1.0657 H            1    LIG   0.0000
@<TRIPOS>BOND
   1        1        2 1
   2        2        3 1
   3        2        4 1
   4        4        5 1
   5        5        6 ar
   6        6        7 ar
   7        7        8 ar
   8        8        9 1
   9        9       10 1
  10        9       11 am
  11       11       12 2
  12       11       13 1
  13       13       14 2
  14       14       15 1
  15       15       16 1
  16       16       17 1
  17       17       18 1
  18       18       19 3
  19       15       20 1
  20       20       21 2
  21       21       13 1
  22       21       22 1
  23       22       23 ar
  24       23       24 ar
  25       24       25 ar
  26       25       26 1
  27       26       27 ar
  28       26       28 ar
  29       25       29 ar
  30       29       30 ar
  31       30       22 ar
  32        8       31 ar
  33       31       32 ar
  34       32        5 ar
  35        1       33 1
  36        1       34 1
  37        1       35 1
  38        2       36 1
  39        3       37 1
  40        3       38 1
  41        3       39 1
  42        6       40 1
  43        7       41 1
  44       10       42 1
  45       10       43 1
  46       10       44 1
  47       14       45 1
  48       16       46 1
  49       16       47 1
  50       17       48 1
  51       17       49 1
  52       23       50 1
  53       24       51 1
  54       29       52 1
  55       30       53 1
  56       31       54 1
  57       32       55 1

