@<TRIPOS>MOLECULE
*****
 55 57 0 0 0
SMALL
USER_CHARGES

@<TRIPOS>ATOM
      1 C1         -3.2036    7.3033   -0.1450 C.3     1  LIG1        0.0000
      2 C2         -2.0616    6.3078   -0.2684 C.3     1  LIG1        0.0000
      3 C3         -0.8363    7.0094   -0.8311 C.3     1  LIG1        0.0000
      4 O4         -1.7563    5.7766    1.0126 O.2     1  LIG1        0.0000
      5 C5         -1.0806    4.6080    1.0112 C.3     1  LIG1        0.0000
      6 C6         -0.7381    4.0127    2.2209 C.3     1  LIG1        0.0000
      7 C7         -0.0435    2.8074    2.2102 C.3     1  LIG1        0.0000
      8 C8          0.2997    2.2129    1.0000 C.3     1  LIG1        0.0000
      9 N9          1.0000    1.0000    1.0000 N.am    1  LIG1        0.0000
     10 C10         0.2650   -0.2731    1.0000 C.3     1  LIG1        0.0000
     11 C11         2.3700    1.0000    1.0000 C.2     1  LIG1        0.0000
     12 O12         2.9700    2.0392    1.0000 O.2     1  LIG1        0.0000
     13 C13         3.0948   -0.2554    1.0000 C.2     1  LIG1        0.0000
     14 C14         3.4997   -0.9530    2.0969 C.2     1  LIG1        0.0000
     15 N15         4.1386   -2.0587    1.6265 N.pl3   1  LIG1        0.0000
     16 C16         4.7391   -3.1019    2.4696 C.3     1  LIG1        0.0000
     17 C17         3.7039   -4.1760    2.7610 C.3     1  LIG1        0.0000
     18 C18         4.3250   -5.2550    3.6331 C.1     1  LIG1        0.0000
     19 N19         4.7908   -6.0642    4.2871 N.1     1  LIG1        0.0000
     20 N20         4.1306   -2.0461    0.3131 N.2     1  LIG1        0.0000
     21 C21         3.5118   -0.9776   -0.1328 C.2     1  LIG1        0.0000
     22 C22         3.2999   -0.6170   -1.5218 C.3     1  LIG1        0.0000
     23 C23         4.3170   -0.8259   -2.4484 C.3     1  LIG1        0.0000
     24 C24         4.1231   -0.4829   -3.7822 C.3     1  LIG1        0.0000
     25 C25         2.9067    0.0685   -4.1704 C.3     1  LIG1        0.0000
     26 N26         2.7056    0.4163   -5.5117 N.pl3   1  LIG1        1.0000
     27 O27         1.6512    0.8966   -5.8606 O.2     1  LIG1        0.0000
     28 O28         3.5934    0.2350   -6.3286 O.2     1  LIG1       -1.0000
     29 C29         1.8847    0.2815   -3.2516 C.3     1  LIG1        0.0000
     30 C30         2.0867   -0.0657   -1.9197 C.3     1  LIG1        0.0000
     31 C31        -0.0473    2.8158   -0.2043 C.3     1  LIG1        0.0000
     32 C32        -0.7418    4.0206   -0.2035 C.3     1  LIG1        0.0000
     33 H          -3.4186    7.6774   -1.0471 H       1  LIG1        0.0000
     34 H          -4.0097    6.8417    0.2252 H       1  LIG1        0.0000
     35 H          -2.9337    8.0458    0.4681 H       1  LIG1        0.0000
     36 H          -2.3315    5.5652   -0.8815 H       1  LIG1        0.0000
     37 H          -1.0513    7.3835   -1.7332 H       1  LIG1        0.0000
     38 H          -0.5664    7.7519   -0.2180 H       1  LIG1        0.0000
     39 H          -0.0850    6.3545   -0.9123 H       1  LIG1        0.0000
     40 H          -0.9880    4.4456    3.0870 H       1  LIG1        0.0000
     41 H           0.2091    2.3682    3.0723 H       1  LIG1        0.0000
     42 H           0.9148   -1.0331    1.0000 H       1  LIG1        0.0000
     43 H          -0.3099   -0.3260    1.8165 H       1  LIG1        0.0000
     44 H          -0.3099   -0.3260    0.1835 H       1  LIG1        0.0000
     45 H           3.3565   -0.7035    3.0546 H       1  LIG1        0.0000
     46 H           5.0507   -2.6972    3.3294 H       1  LIG1        0.0000
     47 H           5.5172   -3.5097    1.9918 H       1  LIG1        0.0000
     48 H           2.9258   -3.7682    3.2388 H       1  LIG1        0.0000
     49 H           3.3923   -4.5806    1.9013 H       1  LIG1        0.0000
     50 H           5.1869   -1.2224   -2.1553 H       1  LIG1        0.0000
     51 H           4.8492   -0.6309   -4.4537 H       1  LIG1        0.0000
     52 H           1.0153    0.6793   -3.5448 H       1  LIG1        0.0000
     53 H           1.3599    0.0812   -1.2487 H       1  LIG1        0.0000
     54 H           0.2025    2.3831   -1.0705 H       1  LIG1        0.0000
     55 H          -0.9947    4.4594   -1.0657 H       1  LIG1        0.0000
@<TRIPOS>BOND
     1     1     2    1
     2     2     3    1
     3     2     4    1
     4     4     5    1
     5     5     6   ar
     6     6     7   ar
     7     7     8   ar
     8     8     9    1
     9     9    10    1
    10     9    11   am
    11    11    12    2
    12    11    13    1
    13    13    14    2
    14    14    15    1
    15    15    16    1
    16    16    17    1
    17    17    18    1
    18    18    19    3
    19    15    20    1
    20    20    21    2
    21    21    13    1
    22    21    22    1
    23    22    23   ar
    24    23    24   ar
    25    24    25   ar
    26    25    26    1
    27    26    27   ar
    28    26    28   ar
    29    25    29   ar
    30    29    30   ar
    31    30    22   ar
    32     8    31   ar
    33    31    32   ar
    34    32     5   ar
    35     1    33    1
    36     1    34    1
    37     1    35    1
    38     2    36    1
    39     3    37    1
    40     3    38    1
    41     3    39    1
    42     6    40    1
    43     7    41    1
    44    10    42    1
    45    10    43    1
    46    10    44    1
    47    14    45    1
    48    16    46    1
    49    16    47    1
    50    17    48    1
    51    17    49    1
    52    23    50    1
    53    24    51    1
    54    29    52    1
    55    30    53    1
    56    31    54    1
    57    32    55    1
