@<TRIPOS>MOLECULE
*****
 55 57 0 0 0
SMALL
USER_CHARGES

@<TRIPOS>ATOM
      1 C1         -2.3561    7.7904    2.1747 C.3     1  LIG1        0.0000
      2 C2         -2.0629    6.3038    2.2950 C.3     1  LIG1        0.0000
      3 C3         -3.2817    5.5909    2.8577 C.3     1  LIG1        0.0000
      4 O4         -1.7563    5.7766    1.0126 O.2     1  LIG1        0.0000
      5 C5         -1.0806    4.6080    1.0112 C.3     1  LIG1        0.0000
      6 C6         -0.7381    4.0127    2.2209 C.3     1  LIG1        0.0000
      7 C7         -0.0435    2.8074    2.2102 C.3     1  LIG1        0.0000
      8 C8          0.2997    2.2129    1.0000 C.3     1  LIG1        0.0000
      9 N9          1.0000    1.0000    1.0000 N.am    1  LIG1        0.0000
     10 C10         0.2650   -0.2731    1.0000 C.3     1  LIG1        0.0000
     11 C11         2.3700    1.0000    1.0000 C.2     1  LIG1        0.0000
     12 O12         2.9700   -0.0392    1.0000 O.2     1  LIG1        0.0000
     13 C13         3.0948    2.2554    1.0000 C.2     1  LIG1        0.0000
     14 C14         3.4965    2.9549    2.0969 C.2     1  LIG1        0.0000
     15 N15         4.1346    4.0610    1.6265 N.pl3   1  LIG1        0.0000
     16 C16         4.7378    5.1027    2.4696 C.3     1  LIG1        0.0000
     17 C17         6.1856    4.7432    2.7610 C.3     1  LIG1        0.0000
     18 C18         6.8095    5.8206    3.6331 C.1     1  LIG1        0.0000
     19 N19         7.2774    6.6286    4.2871 N.1     1  LIG1        0.0000
     20 N20         4.1277    4.0477    0.3131 N.2     1  LIG1        0.0000
     21 C21         3.5118    2.9776   -0.1328 C.2     1  LIG1        0.0000
     22 C22         3.3055    2.6138   -1.5218 C.3     1  LIG1        0.0000
     23 C23         2.9778    3.5991   -2.4484 C.3     1  LIG1        0.0000
     24 C24         2.7777    3.2597   -3.7822 C.3     1  LIG1        0.0000
     25 C25         2.9083    1.9306   -4.1704 C.3     1  LIG1        0.0000
     26 N26         2.7077    1.5825   -5.5117 N.pl3   1  LIG1        1.0000
     27 O27         2.8189    0.4292   -5.8606 O.2     1  LIG1        0.0000
     28 O28         2.4208    2.4420   -6.3286 O.2     1  LIG1       -1.0000
     29 C29         3.2349    0.9389   -3.2516 C.3     1  LIG1        0.0000
     30 C30         3.4346    1.2875   -1.9197 C.3     1  LIG1        0.0000
     31 C31        -0.0473    2.8158   -0.2043 C.3     1  LIG1        0.0000
     32 C32        -0.7418    4.0206   -0.2035 C.3     1  LIG1        0.0000
     33 H          -2.5721    8.1617    3.0777 H       1  LIG1        0.0000
     34 H          -1.5543    8.2594    1.8044 H       1  LIG1        0.0000
     35 H          -3.1349    7.9281    1.5627 H       1  LIG1        0.0000
     36 H          -1.2841    6.1661    2.9069 H       1  LIG1        0.0000
     37 H          -3.4977    5.9622    3.7607 H       1  LIG1        0.0000
     38 H          -4.0605    5.7286    2.2457 H       1  LIG1        0.0000
     39 H          -3.0888    4.6129    2.9368 H       1  LIG1        0.0000
     40 H          -0.9880    4.4456    3.0870 H       1  LIG1        0.0000
     41 H           0.2091    2.3682    3.0723 H       1  LIG1        0.0000
     42 H           0.9148   -1.0331    1.0000 H       1  LIG1        0.0000
     43 H          -0.3099   -0.3260    1.8165 H       1  LIG1        0.0000
     44 H          -0.3099   -0.3260    0.1835 H       1  LIG1        0.0000
     45 H           3.3520    2.7061    3.0546 H       1  LIG1        0.0000
     46 H           4.2315    5.1702    3.3294 H       1  LIG1        0.0000
     47 H           4.7019    5.9804    1.9918 H       1  LIG1        0.0000
     48 H           6.2215    3.8654    3.2388 H       1  LIG1        0.0000
     49 H           6.6918    4.6757    1.9013 H       1  LIG1        0.0000
     50 H           2.8862    4.5508   -2.1553 H       1  LIG1        0.0000
     51 H           2.5428    3.9625   -4.4537 H       1  LIG1        0.0000
     52 H           3.3251   -0.0129   -3.5448 H       1  LIG1        0.0000
     53 H           3.6708    0.5846   -1.2487 H       1  LIG1        0.0000
     54 H           0.2025    2.3831   -1.0705 H       1  LIG1        0.0000
     55 H          -0.9947    4.4594   -1.0657 H       1  LIG1        0.0000
@<TRIPOS>BOND
     1     1     2    1
     2     2     3    1
     3     2     4    1
     4     4     5    1
     5     5     6   ar
     6     6     7   ar
     7     7     8   ar
     8     8     9    1
     9     9    10    1
    10     9    11   am
    11    11    12    2
    12    11    13    1
    13    13    14    2
    14    14    15    1
    15    15    16    1
    16    16    17    1
    17    17    18    1
    18    18    19    3
    19    15    20    1
    20    20    21    2
    21    21    13    1
    22    21    22    1
    23    22    23   ar
    24    23    24   ar
    25    24    25   ar
    26    25    26    1
    27    26    27   ar
    28    26    28   ar
    29    25    29   ar
    30    29    30   ar
    31    30    22   ar
    32     8    31   ar
    33    31    32   ar
    34    32     5   ar
    35     1    33    1
    36     1    34    1
    37     1    35    1
    38     2    36    1
    39     3    37    1
    40     3    38    1
    41     3    39    1
    42     6    40    1
    43     7    41    1
    44    10    42    1
    45    10    43    1
    46    10    44    1
    47    14    45    1
    48    16    46    1
    49    16    47    1
    50    17    48    1
    51    17    49    1
    52    23    50    1
    53    24    51    1
    54    29    52    1
    55    30    53    1
    56    31    54    1
    57    32    55    1
