@<TRIPOS>MOLECULE

  60   64
SMALL
USER_CHARGES
@<TRIPOS>ATOM
   1 C1          -5.3479     0.7081     3.2563 C.3          1    LIG   0.0000
   2 O2          -3.9560     0.9318     3.4265 O.3          1    LIG   0.0000
   3 C3          -3.2940     1.3413     2.3235 C.ar         1    LIG   0.0000
   4 C4          -3.9893     1.5137     1.1309 C.ar         1    LIG   0.0000
   5 C5          -3.2968     1.9357     0.0011 C.ar         1    LIG   0.0000
   6 C6          -1.9296     2.1848     0.0549 C.ar         1    LIG   0.0000
   7 C7          -1.2544     2.0061     1.2579 C.ar         1    LIG   0.0000
   8 C8           0.2400     2.2751     1.3268 C.3          1    LIG   0.0000
   9 C9           1.0000     1.0000     1.0000 C.2          1    LIG   0.0000
  10 O10          0.4000    -0.0067     0.7420 O.2          1    LIG   0.0000
  11 N11          2.4025     1.0000     1.0000 N.am         1    LIG   0.0000
  12 C12          3.2615    -0.1409     0.6803 C.3          1    LIG   0.0000
  13 C13          4.4425     0.5447     0.0240 C.3          1    LIG   0.0000
  14 C14          4.4736     1.8756     0.7346 C.ar         1    LIG   0.0000
  15 C15          5.5128     2.7909     0.8570 C.ar         1    LIG   0.0000
  16 C16          5.2933     3.9767     1.5537 C.ar         1    LIG   0.0000
  17 C17          4.0395     4.2077     2.1093 C.ar         1    LIG   0.0000
  18 N18          3.8041     5.3991     2.8063 N.pl3        1    LIG   0.0000
  19 C19          4.8280     6.3415     2.9462 C.2          1    LIG   0.0000
  20 C20          5.5036     6.9889     1.8897 C.2          1    LIG   0.0000
  21 C21          6.4158     7.8095     2.4775 C.2          1    LIG   0.0000
  22 O22          7.2768     8.6161     1.8215 O.3          1    LIG  -1.0000
  23 N23          6.3212     7.6899     3.8296 N.pl3        1    LIG   0.0000
  24 C24          7.0983     8.3811     4.7668 C.ar         1    LIG   0.0000
  25 C25          6.6588     9.6096     5.2494 C.ar         1    LIG   0.0000
  26 C26          7.4393    10.2873     6.1800 C.ar         1    LIG   0.0000
  27 C27          8.6421     9.7508     6.6270 C.ar         1    LIG   0.0000
  28 C28          9.0622     8.5210     6.1311 C.ar         1    LIG   0.0000
  29 C29         10.3150     7.9539     6.5907 C.2          1    LIG   0.0000
  30 O30         11.0101     8.5697     7.4275 O.co2        1    LIG   0.0000
  31 O31         10.6876     6.8846     6.1643 O.co2        1    LIG  -1.0000
  32 C32          8.2978     7.8262     5.1997 C.ar         1    LIG   0.0000
  33 C33          5.3481     6.7860     4.1196 C.2          1    LIG   0.0000
  34 O34          4.9656     6.3999     5.3550 O.3          1    LIG   0.0000
  35 C35          3.0175     3.2758     1.9742 C.ar         1    LIG   0.0000
  36 C36          3.2231     2.0887     1.2791 C.ar         1    LIG   0.0000
  37 C37         -1.9268     1.5843     2.4000 C.ar         1    LIG   0.0000
  38 H           -5.7461     0.4095     4.1237 H            1    LIG   0.0000
  39 H           -5.7883     1.5562     2.9618 H            1    LIG   0.0000
  40 H           -5.4896     0.0009     2.5636 H            1    LIG   0.0000
  41 H           -4.9726     1.3367     1.0867 H            1    LIG   0.0000
  42 H           -3.7881     2.0615    -0.8608 H            1    LIG   0.0000
  43 H           -1.4379     2.4887    -0.7612 H            1    LIG   0.0000
  44 H            0.4816     2.5804     2.2480 H            1    LIG   0.0000
  45 H            0.4816     2.9858     0.6661 H            1    LIG   0.0000
  46 H            2.8099    -0.7730     0.0507 H            1    LIG   0.0000
  47 H            3.5374    -0.6331     1.5059 H            1    LIG   0.0000
  48 H            5.2884     0.0332     0.1748 H            1    LIG   0.0000
  49 H            4.2941     0.6614    -0.9581 H            1    LIG   0.0000
  50 H            6.4062     2.6004     0.4502 H            1    LIG   0.0000
  51 H            6.0252     4.6509     1.6529 H            1    LIG   0.0000
  52 H            2.9039     5.5762     3.2040 H            1    LIG   0.0000
  53 H            5.3445     6.8690     0.9098 H            1    LIG   0.0000
  54 H            5.7945     9.9997     4.9320 H            1    LIG   0.0000
  55 H            7.1318    11.1714     6.5320 H            1    LIG   0.0000
  56 H            9.1980    10.2432     7.2967 H            1    LIG   0.0000
  57 H            8.6056     6.9424     4.8473 H            1    LIG   0.0000
  58 H            4.2358     5.7250     5.4643 H            1    LIG   0.0000
  59 H            2.1232     3.4609     2.3817 H            1    LIG   0.0000
  60 H           -1.4354     1.4579     3.2617 H            1    LIG   0.0000
@<TRIPOS>BOND
   1        1        2 1
   2        2        3 1
   3        3        4 ar
   4        4        5 ar
   5        5        6 ar
   6        6        7 ar
   7        7        8 1
   8        8        9 1
   9        9       10 2
  10        9       11 am
  11       11       12 1
  12       12       13 1
  13       13       14 1
  14       14       15 ar
  15       15       16 ar
  16       16       17 ar
  17       17       18 1
  18       18       19 1
  19       19       20 1
  20       20       21 2
  21       21       22 1
  22       21       23 1
  23       23       24 1
  24       24       25 ar
  25       25       26 ar
  26       26       27 ar
  27       27       28 ar
  28       28       29 1
  29       29       30 ar
  30       29       31 ar
  31       28       32 ar
  32       32       24 ar
  33       23       33 1
  34       33       19 2
  35       33       34 1
  36       17       35 ar
  37       35       36 ar
  38       36       14 ar
  39       36       11 1
  40        7       37 ar
  41       37        3 ar
  42        1       38 1
  43        1       39 1
  44        1       40 1
  45        4       41 1
  46        5       42 1
  47        6       43 1
  48        8       44 1
  49        8       45 1
  50       12       46 1
  51       12       47 1
  52       13       48 1
  53       13       49 1
  54       15       50 1
  55       16       51 1
  56       18       52 1
  57       20       53 1
  58       25       54 1
  59       26       55 1
  60       27       56 1
  61       32       57 1
  62       34       58 1
  63       35       59 1
  64       37       60 1

@<TRIPOS>MOLECULE

  60   64
SMALL
USER_CHARGES
@<TRIPOS>ATOM
   1 C1          -5.3479     0.7081     3.2563 C.3          1    LIG   0.0000
   2 O2          -3.9560     0.9318     3.4265 O.3          1    LIG   0.0000
   3 C3          -3.2940     1.3413     2.3235 C.ar         1    LIG   0.0000
   4 C4          -3.9893     1.5137     1.1309 C.ar         1    LIG   0.0000
   5 C5          -3.2968     1.9357     0.0011 C.ar         1    LIG   0.0000
   6 C6          -1.9296     2.1848     0.0549 C.ar         1    LIG   0.0000
   7 C7          -1.2544     2.0061     1.2579 C.ar         1    LIG   0.0000
   8 C8           0.2400     2.2751     1.3268 C.3          1    LIG   0.0000
   9 C9           1.0000     1.0000     1.0000 C.2          1    LIG   0.0000
  10 O10          0.4000    -0.0067     0.7420 O.2          1    LIG   0.0000
  11 N11          2.4025     1.0000     1.0000 N.am         1    LIG   0.0000
  12 C12          3.2615    -0.1409     0.6803 C.3          1    LIG   0.0000
  13 C13          4.4425     0.5447     0.0240 C.3          1    LIG   0.0000
  14 C14          4.4736     1.8756     0.7346 C.ar         1    LIG   0.0000
  15 C15          5.5128     2.7909     0.8570 C.ar         1    LIG   0.0000
  16 C16          5.2933     3.9767     1.5537 C.ar         1    LIG   0.0000
  17 C17          4.0395     4.2077     2.1093 C.ar         1    LIG   0.0000
  18 N18          3.8041     5.3991     2.8063 N.pl3        1    LIG   0.0000
  19 C19          4.8280     6.3415     2.9462 C.2          1    LIG   0.0000
  20 C20          5.5036     6.9889     1.8897 C.2          1    LIG   0.0000
  21 C21          6.4158     7.8095     2.4775 C.2          1    LIG   0.0000
  22 O22          7.2768     8.6161     1.8215 O.3          1    LIG  -1.0000
  23 N23          6.3212     7.6899     3.8296 N.pl3        1    LIG   0.0000
  24 C24          7.0983     8.3811     4.7668 C.ar         1    LIG   0.0000
  25 C25          8.2990     7.8296     5.2021 C.ar         1    LIG   0.0000
  26 C26          9.0626     8.5251     6.1336 C.ar         1    LIG   0.0000
  27 C27          8.6392     9.7548     6.6265 C.ar         1    LIG   0.0000
  28 C28          7.4354    10.2876     6.1772 C.ar         1    LIG   0.0000
  29 C29          6.9854    11.5687     6.6858 C.2          1    LIG   0.0000
  30 O30          7.6781    12.1872     7.5226 O.co2        1    LIG   0.0000
  31 O31          5.9394    12.0392     6.3002 O.co2        1    LIG  -1.0000
  32 C32          6.6556     9.6091     5.2465 C.ar         1    LIG   0.0000
  33 C33          5.3481     6.7860     4.1196 C.2          1    LIG   0.0000
  34 O34          4.9656     6.3999     5.3550 O.3          1    LIG   0.0000
  35 C35          3.0175     3.2758     1.9742 C.ar         1    LIG   0.0000
  36 C36          3.2231     2.0887     1.2791 C.ar         1    LIG   0.0000
  37 C37         -1.9268     1.5843     2.4000 C.ar         1    LIG   0.0000
  38 H           -5.7461     0.4095     4.1237 H            1    LIG   0.0000
  39 H           -5.7883     1.5562     2.9618 H            1    LIG   0.0000
  40 H           -5.4896     0.0009     2.5636 H            1    LIG   0.0000
  41 H           -4.9726     1.3367     1.0867 H            1    LIG   0.0000
  42 H           -3.7881     2.0615    -0.8608 H            1    LIG   0.0000
  43 H           -1.4379     2.4887    -0.7612 H            1    LIG   0.0000
  44 H            0.4816     2.5804     2.2480 H            1    LIG   0.0000
  45 H            0.4816     2.9858     0.6661 H            1    LIG   0.0000
  46 H            2.8099    -0.7730     0.0507 H            1    LIG   0.0000
  47 H            3.5374    -0.6331     1.5059 H            1    LIG   0.0000
  48 H            5.2884     0.0332     0.1748 H            1    LIG   0.0000
  49 H            4.2941     0.6614    -0.9581 H            1    LIG   0.0000
  50 H            6.4062     2.6004     0.4502 H            1    LIG   0.0000
  51 H            6.0252     4.6509     1.6529 H            1    LIG   0.0000
  52 H            2.9039     5.5762     3.2040 H            1    LIG   0.0000
  53 H            5.3445     6.8690     0.9098 H            1    LIG   0.0000
  54 H            8.6086     6.9461     4.8505 H            1    LIG   0.0000
  55 H            9.9267     8.1361     6.4529 H            1    LIG   0.0000
  56 H            9.1935    10.2499     7.2956 H            1    LIG   0.0000
  57 H            5.7912     9.9978     4.9277 H            1    LIG   0.0000
  58 H            4.2358     5.7250     5.4643 H            1    LIG   0.0000
  59 H            2.1232     3.4609     2.3817 H            1    LIG   0.0000
  60 H           -1.4354     1.4579     3.2617 H            1    LIG   0.0000
@<TRIPOS>BOND
   1        1        2 1
   2        2        3 1
   3        3        4 ar
   4        4        5 ar
   5        5        6 ar
   6        6        7 ar
   7        7        8 1
   8        8        9 1
   9        9       10 2
  10        9       11 am
  11       11       12 1
  12       12       13 1
  13       13       14 1
  14       14       15 ar
  15       15       16 ar
  16       16       17 ar
  17       17       18 1
  18       18       19 1
  19       19       20 1
  20       20       21 2
  21       21       22 1
  22       21       23 1
  23       23       24 1
  24       24       25 ar
  25       25       26 ar
  26       26       27 ar
  27       27       28 ar
  28       28       29 1
  29       29       30 ar
  30       29       31 ar
  31       28       32 ar
  32       32       24 ar
  33       23       33 1
  34       33       19 2
  35       33       34 1
  36       17       35 ar
  37       35       36 ar
  38       36       14 ar
  39       36       11 1
  40        7       37 ar
  41       37        3 ar
  42        1       38 1
  43        1       39 1
  44        1       40 1
  45        4       41 1
  46        5       42 1
  47        6       43 1
  48        8       44 1
  49        8       45 1
  50       12       46 1
  51       12       47 1
  52       13       48 1
  53       13       49 1
  54       15       50 1
  55       16       51 1
  56       18       52 1
  57       20       53 1
  58       25       54 1
  59       26       55 1
  60       27       56 1
  61       32       57 1
  62       34       58 1
  63       35       59 1
  64       37       60 1

@<TRIPOS>MOLECULE

  60   64
SMALL
USER_CHARGES
@<TRIPOS>ATOM
   1 C1          -5.3479     0.7081     3.2563 C.3          1    LIG   0.0000
   2 O2          -3.9560     0.9318     3.4265 O.3          1    LIG   0.0000
   3 C3          -3.2940     1.3413     2.3235 C.ar         1    LIG   0.0000
   4 C4          -3.9893     1.5137     1.1309 C.ar         1    LIG   0.0000
   5 C5          -3.2968     1.9357     0.0011 C.ar         1    LIG   0.0000
   6 C6          -1.9296     2.1848     0.0549 C.ar         1    LIG   0.0000
   7 C7          -1.2544     2.0061     1.2579 C.ar         1    LIG   0.0000
   8 C8           0.2400     2.2751     1.3268 C.3          1    LIG   0.0000
   9 C9           1.0000     1.0000     1.0000 C.2          1    LIG   0.0000
  10 O10          0.4000    -0.0067     0.7420 O.2          1    LIG   0.0000
  11 N11          2.4025     1.0000     1.0000 N.am         1    LIG   0.0000
  12 C12          3.2615    -0.1409     0.6803 C.3          1    LIG   0.0000
  13 C13          4.4425     0.5447     0.0240 C.3          1    LIG   0.0000
  14 C14          4.4736     1.8756     0.7346 C.ar         1    LIG   0.0000
  15 C15          5.5128     2.7909     0.8570 C.ar         1    LIG   0.0000
  16 C16          5.2933     3.9767     1.5537 C.ar         1    LIG   0.0000
  17 C17          4.0395     4.2077     2.1093 C.ar         1    LIG   0.0000
  18 N18          3.8041     5.3991     2.8063 N.pl3        1    LIG   0.0000
  19 C19          4.8280     6.3415     2.9462 C.2          1    LIG   0.0000
  20 C20          5.3607     6.8061     4.1676 C.2          1    LIG   0.0000
  21 C21          6.3220     7.7098     3.8358 C.2          1    LIG   0.0000
  22 O22          7.0837     8.3967     4.7135 O.3          1    LIG  -1.0000
  23 N23          6.3952     7.8097     2.4808 N.pl3        1    LIG   0.0000
  24 C24          7.2703     8.6391     1.7693 C.ar         1    LIG   0.0000
  25 C25          8.5214     8.1576     1.3975 C.ar         1    LIG   0.0000
  26 C26          9.3825     8.9907     0.6913 C.ar         1    LIG   0.0000
  27 C27          9.0052    10.2869     0.3570 C.ar         1    LIG   0.0000
  28 C28          7.7495    10.7477     0.7388 C.ar         1    LIG   0.0000
  29 C29          7.3475    12.0978     0.3954 C.2          1    LIG   0.0000
  30 O30          8.1276    12.8398    -0.2399 O.co2        1    LIG   0.0000
  31 O31          6.2569    12.5064     0.7237 O.co2        1    LIG  -1.0000
  32 C32          6.8726     9.9320     1.4459 C.ar         1    LIG   0.0000
  33 C33          5.4759     6.9719     1.9322 C.2          1    LIG   0.0000
  34 O34          5.2483     6.7965     0.6136 O.3          1    LIG   0.0000
  35 C35          3.0175     3.2758     1.9742 C.ar         1    LIG   0.0000
  36 C36          3.2231     2.0887     1.2791 C.ar         1    LIG   0.0000
  37 C37         -1.9268     1.5843     2.4000 C.ar         1    LIG   0.0000
  38 H           -5.7461     0.4095     4.1237 H            1    LIG   0.0000
  39 H           -5.7883     1.5562     2.9618 H            1    LIG   0.0000
  40 H           -5.4896     0.0009     2.5636 H            1    LIG   0.0000
  41 H           -4.9726     1.3367     1.0867 H            1    LIG   0.0000
  42 H           -3.7881     2.0615    -0.8608 H            1    LIG   0.0000
  43 H           -1.4379     2.4887    -0.7612 H            1    LIG   0.0000
  44 H            0.4816     2.5804     2.2480 H            1    LIG   0.0000
  45 H            0.4816     2.9858     0.6661 H            1    LIG   0.0000
  46 H            2.8099    -0.7730     0.0507 H            1    LIG   0.0000
  47 H            3.5374    -0.6331     1.5059 H            1    LIG   0.0000
  48 H            5.2884     0.0332     0.1748 H            1    LIG   0.0000
  49 H            4.2941     0.6614    -0.9581 H            1    LIG   0.0000
  50 H            6.4062     2.6004     0.4502 H            1    LIG   0.0000
  51 H            6.0252     4.6509     1.6529 H            1    LIG   0.0000
  52 H            2.9039     5.5762     3.2040 H            1    LIG   0.0000
  53 H            5.0874     6.5280     5.0885 H            1    LIG   0.0000
  54 H            8.7975     7.2262     1.6346 H            1    LIG   0.0000
  55 H           10.2841     8.6535     0.4204 H            1    LIG   0.0000
  56 H            9.6291    10.8804    -0.1515 H            1    LIG   0.0000
  57 H            5.9712    10.2694     1.7173 H            1    LIG   0.0000
  58 H            4.5459     6.1533     0.3086 H            1    LIG   0.0000
  59 H            2.1232     3.4609     2.3817 H            1    LIG   0.0000
  60 H           -1.4354     1.4579     3.2617 H            1    LIG   0.0000
@<TRIPOS>BOND
   1        1        2 1
   2        2        3 1
   3        3        4 ar
   4        4        5 ar
   5        5        6 ar
   6        6        7 ar
   7        7        8 1
   8        8        9 1
   9        9       10 2
  10        9       11 am
  11       11       12 1
  12       12       13 1
  13       13       14 1
  14       14       15 ar
  15       15       16 ar
  16       16       17 ar
  17       17       18 1
  18       18       19 1
  19       19       20 1
  20       20       21 2
  21       21       22 1
  22       21       23 1
  23       23       24 1
  24       24       25 ar
  25       25       26 ar
  26       26       27 ar
  27       27       28 ar
  28       28       29 1
  29       29       30 ar
  30       29       31 ar
  31       28       32 ar
  32       32       24 ar
  33       23       33 1
  34       33       19 2
  35       33       34 1
  36       17       35 ar
  37       35       36 ar
  38       36       14 ar
  39       36       11 1
  40        7       37 ar
  41       37        3 ar
  42        1       38 1
  43        1       39 1
  44        1       40 1
  45        4       41 1
  46        5       42 1
  47        6       43 1
  48        8       44 1
  49        8       45 1
  50       12       46 1
  51       12       47 1
  52       13       48 1
  53       13       49 1
  54       15       50 1
  55       16       51 1
  56       18       52 1
  57       20       53 1
  58       25       54 1
  59       26       55 1
  60       27       56 1
  61       32       57 1
  62       34       58 1
  63       35       59 1
  64       37       60 1

@<TRIPOS>MOLECULE

  60   64
SMALL
USER_CHARGES
@<TRIPOS>ATOM
   1 C1          -5.3479     0.7081     3.2563 C.3          1    LIG   0.0000
   2 O2          -3.9560     0.9318     3.4265 O.3          1    LIG   0.0000
   3 C3          -3.2940     1.3413     2.3235 C.ar         1    LIG   0.0000
   4 C4          -3.9893     1.5137     1.1309 C.ar         1    LIG   0.0000
   5 C5          -3.2968     1.9357     0.0011 C.ar         1    LIG   0.0000
   6 C6          -1.9296     2.1848     0.0549 C.ar         1    LIG   0.0000
   7 C7          -1.2544     2.0061     1.2579 C.ar         1    LIG   0.0000
   8 C8           0.2400     2.2751     1.3268 C.3          1    LIG   0.0000
   9 C9           1.0000     1.0000     1.0000 C.2          1    LIG   0.0000
  10 O10          0.4000    -0.0067     0.7420 O.2          1    LIG   0.0000
  11 N11          2.4025     1.0000     1.0000 N.am         1    LIG   0.0000
  12 C12          3.2615    -0.1409     0.6803 C.3          1    LIG   0.0000
  13 C13          4.4425     0.5447     0.0240 C.3          1    LIG   0.0000
  14 C14          4.4736     1.8756     0.7346 C.ar         1    LIG   0.0000
  15 C15          5.5128     2.7909     0.8570 C.ar         1    LIG   0.0000
  16 C16          5.2933     3.9767     1.5537 C.ar         1    LIG   0.0000
  17 C17          4.0395     4.2077     2.1093 C.ar         1    LIG   0.0000
  18 N18          3.8041     5.3991     2.8063 N.pl3        1    LIG   0.0000
  19 C19          4.8280     6.3415     2.9462 C.2          1    LIG   0.0000
  20 C20          5.3607     6.8061     4.1676 C.2          1    LIG   0.0000
  21 C21          6.3220     7.7098     3.8358 C.2          1    LIG   0.0000
  22 O22          7.0837     8.3967     4.7135 O.3          1    LIG  -1.0000
  23 N23          6.3952     7.8097     2.4808 N.pl3        1    LIG   0.0000
  24 C24          7.2703     8.6391     1.7693 C.ar         1    LIG   0.0000
  25 C25          6.8764     9.9332     1.4442 C.ar         1    LIG   0.0000
  26 C26          7.7539    10.7480     0.7370 C.ar         1    LIG   0.0000
  27 C27          9.0088    10.2837     0.3577 C.ar         1    LIG   0.0000
  28 C28          9.3820     8.9864     0.6934 C.ar         1    LIG   0.0000
  29 C29         10.6881     8.4932     0.3018 C.2          1    LIG   0.0000
  30 O30         11.4707     9.2325    -0.3335 O.co2        1    LIG   0.0000
  31 O31         11.0205     7.3660     0.5899 O.co2        1    LIG  -1.0000
  32 C32          8.5203     8.1541     1.3999 C.ar         1    LIG   0.0000
  33 C33          5.4759     6.9719     1.9322 C.2          1    LIG   0.0000
  34 O34          5.2483     6.7965     0.6136 O.3          1    LIG   0.0000
  35 C35          3.0175     3.2758     1.9742 C.ar         1    LIG   0.0000
  36 C36          3.2231     2.0887     1.2791 C.ar         1    LIG   0.0000
  37 C37         -1.9268     1.5843     2.4000 C.ar         1    LIG   0.0000
  38 H           -5.7461     0.4095     4.1237 H            1    LIG   0.0000
  39 H           -5.7883     1.5562     2.9618 H            1    LIG   0.0000
  40 H           -5.4896     0.0009     2.5636 H            1    LIG   0.0000
  41 H           -4.9726     1.3367     1.0867 H            1    LIG   0.0000
  42 H           -3.7881     2.0615    -0.8608 H            1    LIG   0.0000
  43 H           -1.4379     2.4887    -0.7612 H            1    LIG   0.0000
  44 H            0.4816     2.5804     2.2480 H            1    LIG   0.0000
  45 H            0.4816     2.9858     0.6661 H            1    LIG   0.0000
  46 H            2.8099    -0.7730     0.0507 H            1    LIG   0.0000
  47 H            3.5374    -0.6331     1.5059 H            1    LIG   0.0000
  48 H            5.2884     0.0332     0.1748 H            1    LIG   0.0000
  49 H            4.2941     0.6614    -0.9581 H            1    LIG   0.0000
  50 H            6.4062     2.6004     0.4502 H            1    LIG   0.0000
  51 H            6.0252     4.6509     1.6529 H            1    LIG   0.0000
  52 H            2.9039     5.5762     3.2040 H            1    LIG   0.0000
  53 H            5.0874     6.5280     5.0885 H            1    LIG   0.0000
  54 H            5.9755    10.2724     1.7151 H            1    LIG   0.0000
  55 H            7.4791    11.6794     0.4982 H            1    LIG   0.0000
  56 H            9.6351    10.8752    -0.1502 H            1    LIG   0.0000
  57 H            8.7949     7.2225     1.6382 H            1    LIG   0.0000
  58 H            4.5459     6.1533     0.3086 H            1    LIG   0.0000
  59 H            2.1232     3.4609     2.3817 H            1    LIG   0.0000
  60 H           -1.4354     1.4579     3.2617 H            1    LIG   0.0000
@<TRIPOS>BOND
   1        1        2 1
   2        2        3 1
   3        3        4 ar
   4        4        5 ar
   5        5        6 ar
   6        6        7 ar
   7        7        8 1
   8        8        9 1
   9        9       10 2
  10        9       11 am
  11       11       12 1
  12       12       13 1
  13       13       14 1
  14       14       15 ar
  15       15       16 ar
  16       16       17 ar
  17       17       18 1
  18       18       19 1
  19       19       20 1
  20       20       21 2
  21       21       22 1
  22       21       23 1
  23       23       24 1
  24       24       25 ar
  25       25       26 ar
  26       26       27 ar
  27       27       28 ar
  28       28       29 1
  29       29       30 ar
  30       29       31 ar
  31       28       32 ar
  32       32       24 ar
  33       23       33 1
  34       33       19 2
  35       33       34 1
  36       17       35 ar
  37       35       36 ar
  38       36       14 ar
  39       36       11 1
  40        7       37 ar
  41       37        3 ar
  42        1       38 1
  43        1       39 1
  44        1       40 1
  45        4       41 1
  46        5       42 1
  47        6       43 1
  48        8       44 1
  49        8       45 1
  50       12       46 1
  51       12       47 1
  52       13       48 1
  53       13       49 1
  54       15       50 1
  55       16       51 1
  56       18       52 1
  57       20       53 1
  58       25       54 1
  59       26       55 1
  60       27       56 1
  61       32       57 1
  62       34       58 1
  63       35       59 1
  64       37       60 1

@<TRIPOS>MOLECULE

  60   64
SMALL
USER_CHARGES
@<TRIPOS>ATOM
   1 C1           0.4129     3.0829     7.3866 C.3          1    LIG   0.0000
   2 O2           0.9427     3.1733     6.0723 O.3          1    LIG   0.0000
   3 C3           0.1525     2.6859     5.0923 C.ar         1    LIG   0.0000
   4 C4          -1.0874     2.1447     5.4167 C.ar         1    LIG   0.0000
   5 C5          -1.8928     1.6453     4.3987 C.ar         1    LIG   0.0000
   6 C6          -1.4723     1.6836     3.0736 C.ar         1    LIG   0.0000
   7 C7          -0.2288     2.2292     2.7720 C.ar         1    LIG   0.0000
   8 C8           0.2400     2.2751     1.3268 C.3          1    LIG   0.0000
   9 C9           1.0000     1.0000     1.0000 C.2          1    LIG   0.0000
  10 O10          0.4000    -0.0067     0.7420 O.2          1    LIG   0.0000
  11 N11          2.4025     1.0000     1.0000 N.am         1    LIG   0.0000
  12 C12          3.2615     2.1409     1.3197 C.3          1    LIG   0.0000
  13 C13          4.4425     1.4553     1.9760 C.3          1    LIG   0.0000
  14 C14          4.4736     0.1244     1.2654 C.ar         1    LIG   0.0000
  15 C15          5.5128    -0.7909     1.1430 C.ar         1    LIG   0.0000
  16 C16          5.2933    -1.9767     0.4463 C.ar         1    LIG   0.0000
  17 C17          4.0395    -2.2077    -0.1093 C.ar         1    LIG   0.0000
  18 N18          3.8041    -3.3991    -0.8063 N.pl3        1    LIG   0.0000
  19 C19          4.8280    -4.3415    -0.9462 C.2          1    LIG   0.0000
  20 C20          5.5036    -4.9889     0.1103 C.2          1    LIG   0.0000
  21 C21          6.4158    -5.8095    -0.4775 C.2          1    LIG   0.0000
  22 O22          7.2768    -6.6161     0.1785 O.3          1    LIG  -1.0000
  23 N23          6.3212    -5.6899    -1.8296 N.pl3        1    LIG   0.0000
  24 C24          7.0983    -6.3811    -2.7668 C.ar         1    LIG   0.0000
  25 C25          6.6588    -7.6096    -3.2494 C.ar         1    LIG   0.0000
  26 C26          7.4393    -8.2873    -4.1800 C.ar         1    LIG   0.0000
  27 C27          8.6421    -7.7508    -4.6270 C.ar         1    LIG   0.0000
  28 C28          9.0622    -6.5210    -4.1311 C.ar         1    LIG   0.0000
  29 C29         10.3150    -5.9539    -4.5907 C.2          1    LIG   0.0000
  30 O30         11.0101    -6.5697    -5.4275 O.co2        1    LIG   0.0000
  31 O31         10.6876    -4.8846    -4.1643 O.co2        1    LIG  -1.0000
  32 C32          8.2978    -5.8262    -3.1997 C.ar         1    LIG   0.0000
  33 C33          5.3481    -4.7860    -2.1196 C.2          1    LIG   0.0000
  34 O34          4.9656    -4.3999    -3.3550 O.3          1    LIG   0.0000
  35 C35          3.0175    -1.2758     0.0258 C.ar         1    LIG   0.0000
  36 C36          3.2231    -0.0887     0.7209 C.ar         1    LIG   0.0000
  37 C37          0.5931     2.7340     3.7740 C.ar         1    LIG   0.0000
  38 H            1.0678     3.4675     8.0372 H            1    LIG   0.0000
  39 H           -0.4453     3.5939     7.4360 H            1    LIG   0.0000
  40 H            0.2431     2.1236     7.6123 H            1    LIG   0.0000
  41 H           -1.3951     2.1154     6.3677 H            1    LIG   0.0000
  42 H           -2.7853     1.2537     4.6224 H            1    LIG   0.0000
  43 H           -2.0567     1.3233     2.3465 H            1    LIG   0.0000
  44 H            0.8406     3.0639     1.1962 H            1    LIG   0.0000
  45 H           -0.5521     2.3554     0.7218 H            1    LIG   0.0000
  46 H            2.8099     2.7730     1.9493 H            1    LIG   0.0000
  47 H            3.5374     2.6331     0.4941 H            1    LIG   0.0000
  48 H            5.2884     1.9668     1.8252 H            1    LIG   0.0000
  49 H            4.2941     1.3386     2.9581 H            1    LIG   0.0000
  50 H            6.4062    -0.6004     1.5498 H            1    LIG   0.0000
  51 H            6.0252    -2.6509     0.3471 H            1    LIG   0.0000
  52 H            2.9039    -3.5762    -1.2040 H            1    LIG   0.0000
  53 H            5.3445    -4.8690     1.0902 H            1    LIG   0.0000
  54 H            5.7945    -7.9997    -2.9320 H            1    LIG   0.0000
  55 H            7.1318    -9.1714    -4.5320 H            1    LIG   0.0000
  56 H            9.1980    -8.2432    -5.2967 H            1    LIG   0.0000
  57 H            8.6056    -4.9424    -2.8473 H            1    LIG   0.0000
  58 H            4.2358    -3.7250    -3.4643 H            1    LIG   0.0000
  59 H            2.1232    -1.4609    -0.3817 H            1    LIG   0.0000
  60 H            1.4859     3.1251     3.5504 H            1    LIG   0.0000
@<TRIPOS>BOND
   1        1        2 1
   2        2        3 1
   3        3        4 ar
   4        4        5 ar
   5        5        6 ar
   6        6        7 ar
   7        7        8 1
   8        8        9 1
   9        9       10 2
  10        9       11 am
  11       11       12 1
  12       12       13 1
  13       13       14 1
  14       14       15 ar
  15       15       16 ar
  16       16       17 ar
  17       17       18 1
  18       18       19 1
  19       19       20 1
  20       20       21 2
  21       21       22 1
  22       21       23 1
  23       23       24 1
  24       24       25 ar
  25       25       26 ar
  26       26       27 ar
  27       27       28 ar
  28       28       29 1
  29       29       30 ar
  30       29       31 ar
  31       28       32 ar
  32       32       24 ar
  33       23       33 1
  34       33       19 2
  35       33       34 1
  36       17       35 ar
  37       35       36 ar
  38       36       14 ar
  39       36       11 1
  40        7       37 ar
  41       37        3 ar
  42        1       38 1
  43        1       39 1
  44        1       40 1
  45        4       41 1
  46        5       42 1
  47        6       43 1
  48        8       44 1
  49        8       45 1
  50       12       46 1
  51       12       47 1
  52       13       48 1
  53       13       49 1
  54       15       50 1
  55       16       51 1
  56       18       52 1
  57       20       53 1
  58       25       54 1
  59       26       55 1
  60       27       56 1
  61       32       57 1
  62       34       58 1
  63       35       59 1
  64       37       60 1

@<TRIPOS>MOLECULE

  60   64
SMALL
USER_CHARGES
@<TRIPOS>ATOM
   1 C1           0.4129     3.0829     7.3866 C.3          1    LIG   0.0000
   2 O2           0.9427     3.1733     6.0723 O.3          1    LIG   0.0000
   3 C3           0.1525     2.6859     5.0923 C.ar         1    LIG   0.0000
   4 C4          -1.0874     2.1447     5.4167 C.ar         1    LIG   0.0000
   5 C5          -1.8928     1.6453     4.3987 C.ar         1    LIG   0.0000
   6 C6          -1.4723     1.6836     3.0736 C.ar         1    LIG   0.0000
   7 C7          -0.2288     2.2292     2.7720 C.ar         1    LIG   0.0000
   8 C8           0.2400     2.2751     1.3268 C.3          1    LIG   0.0000
   9 C9           1.0000     1.0000     1.0000 C.2          1    LIG   0.0000
  10 O10          0.4000    -0.0067     0.7420 O.2          1    LIG   0.0000
  11 N11          2.4025     1.0000     1.0000 N.am         1    LIG   0.0000
  12 C12          3.2615     2.1409     1.3197 C.3          1    LIG   0.0000
  13 C13          4.4425     1.4553     1.9760 C.3          1    LIG   0.0000
  14 C14          4.4736     0.1244     1.2654 C.ar         1    LIG   0.0000
  15 C15          5.5128    -0.7909     1.1430 C.ar         1    LIG   0.0000
  16 C16          5.2933    -1.9767     0.4463 C.ar         1    LIG   0.0000
  17 C17          4.0395    -2.2077    -0.1093 C.ar         1    LIG   0.0000
  18 N18          3.8041    -3.3991    -0.8063 N.pl3        1    LIG   0.0000
  19 C19          4.8280    -4.3415    -0.9462 C.2          1    LIG   0.0000
  20 C20          5.5036    -4.9889     0.1103 C.2          1    LIG   0.0000
  21 C21          6.4158    -5.8095    -0.4775 C.2          1    LIG   0.0000
  22 O22          7.2768    -6.6161     0.1785 O.3          1    LIG  -1.0000
  23 N23          6.3212    -5.6899    -1.8296 N.pl3        1    LIG   0.0000
  24 C24          7.0983    -6.3811    -2.7668 C.ar         1    LIG   0.0000
  25 C25          8.2990    -5.8296    -3.2021 C.ar         1    LIG   0.0000
  26 C26          9.0626    -6.5251    -4.1336 C.ar         1    LIG   0.0000
  27 C27          8.6392    -7.7548    -4.6265 C.ar         1    LIG   0.0000
  28 C28          7.4354    -8.2876    -4.1772 C.ar         1    LIG   0.0000
  29 C29          6.9854    -9.5687    -4.6858 C.2          1    LIG   0.0000
  30 O30          7.6781   -10.1872    -5.5226 O.co2        1    LIG   0.0000
  31 O31          5.9394   -10.0392    -4.3002 O.co2        1    LIG  -1.0000
  32 C32          6.6556    -7.6091    -3.2465 C.ar         1    LIG   0.0000
  33 C33          5.3481    -4.7860    -2.1196 C.2          1    LIG   0.0000
  34 O34          4.9656    -4.3999    -3.3550 O.3          1    LIG   0.0000
  35 C35          3.0175    -1.2758     0.0258 C.ar         1    LIG   0.0000
  36 C36          3.2231    -0.0887     0.7209 C.ar         1    LIG   0.0000
  37 C37          0.5931     2.7340     3.7740 C.ar         1    LIG   0.0000
  38 H            1.0678     3.4675     8.0372 H            1    LIG   0.0000
  39 H           -0.4453     3.5939     7.4360 H            1    LIG   0.0000
  40 H            0.2431     2.1236     7.6123 H            1    LIG   0.0000
  41 H           -1.3951     2.1154     6.3677 H            1    LIG   0.0000
  42 H           -2.7853     1.2537     4.6224 H            1    LIG   0.0000
  43 H           -2.0567     1.3233     2.3465 H            1    LIG   0.0000
  44 H            0.8406     3.0639     1.1962 H            1    LIG   0.0000
  45 H           -0.5521     2.3554     0.7218 H            1    LIG   0.0000
  46 H            2.8099     2.7730     1.9493 H            1    LIG   0.0000
  47 H            3.5374     2.6331     0.4941 H            1    LIG   0.0000
  48 H            5.2884     1.9668     1.8252 H            1    LIG   0.0000
  49 H            4.2941     1.3386     2.9581 H            1    LIG   0.0000
  50 H            6.4062    -0.6004     1.5498 H            1    LIG   0.0000
  51 H            6.0252    -2.6509     0.3471 H            1    LIG   0.0000
  52 H            2.9039    -3.5762    -1.2040 H            1    LIG   0.0000
  53 H            5.3445    -4.8690     1.0902 H            1    LIG   0.0000
  54 H            8.6086    -4.9461    -2.8505 H            1    LIG   0.0000
  55 H            9.9267    -6.1361    -4.4529 H            1    LIG   0.0000
  56 H            9.1935    -8.2499    -5.2956 H            1    LIG   0.0000
  57 H            5.7912    -7.9978    -2.9277 H            1    LIG   0.0000
  58 H            4.2358    -3.7250    -3.4643 H            1    LIG   0.0000
  59 H            2.1232    -1.4609    -0.3817 H            1    LIG   0.0000
  60 H            1.4859     3.1251     3.5504 H            1    LIG   0.0000
@<TRIPOS>BOND
   1        1        2 1
   2        2        3 1
   3        3        4 ar
   4        4        5 ar
   5        5        6 ar
   6        6        7 ar
   7        7        8 1
   8        8        9 1
   9        9       10 2
  10        9       11 am
  11       11       12 1
  12       12       13 1
  13       13       14 1
  14       14       15 ar
  15       15       16 ar
  16       16       17 ar
  17       17       18 1
  18       18       19 1
  19       19       20 1
  20       20       21 2
  21       21       22 1
  22       21       23 1
  23       23       24 1
  24       24       25 ar
  25       25       26 ar
  26       26       27 ar
  27       27       28 ar
  28       28       29 1
  29       29       30 ar
  30       29       31 ar
  31       28       32 ar
  32       32       24 ar
  33       23       33 1
  34       33       19 2
  35       33       34 1
  36       17       35 ar
  37       35       36 ar
  38       36       14 ar
  39       36       11 1
  40        7       37 ar
  41       37        3 ar
  42        1       38 1
  43        1       39 1
  44        1       40 1
  45        4       41 1
  46        5       42 1
  47        6       43 1
  48        8       44 1
  49        8       45 1
  50       12       46 1
  51       12       47 1
  52       13       48 1
  53       13       49 1
  54       15       50 1
  55       16       51 1
  56       18       52 1
  57       20       53 1
  58       25       54 1
  59       26       55 1
  60       27       56 1
  61       32       57 1
  62       34       58 1
  63       35       59 1
  64       37       60 1

@<TRIPOS>MOLECULE

  60   64
SMALL
USER_CHARGES
@<TRIPOS>ATOM
   1 C1           0.4129     3.0829     7.3866 C.3          1    LIG   0.0000
   2 O2           0.9427     3.1733     6.0723 O.3          1    LIG   0.0000
   3 C3           0.1525     2.6859     5.0923 C.ar         1    LIG   0.0000
   4 C4          -1.0874     2.1447     5.4167 C.ar         1    LIG   0.0000
   5 C5          -1.8928     1.6453     4.3987 C.ar         1    LIG   0.0000
   6 C6          -1.4723     1.6836     3.0736 C.ar         1    LIG   0.0000
   7 C7          -0.2288     2.2292     2.7720 C.ar         1    LIG   0.0000
   8 C8           0.2400     2.2751     1.3268 C.3          1    LIG   0.0000
   9 C9           1.0000     1.0000     1.0000 C.2          1    LIG   0.0000
  10 O10          0.4000    -0.0067     0.7420 O.2          1    LIG   0.0000
  11 N11          2.4025     1.0000     1.0000 N.am         1    LIG   0.0000
  12 C12          3.2615     2.1409     1.3197 C.3          1    LIG   0.0000
  13 C13          4.4425     1.4553     1.9760 C.3          1    LIG   0.0000
  14 C14          4.4736     0.1244     1.2654 C.ar         1    LIG   0.0000
  15 C15          5.5128    -0.7909     1.1430 C.ar         1    LIG   0.0000
  16 C16          5.2933    -1.9767     0.4463 C.ar         1    LIG   0.0000
  17 C17          4.0395    -2.2077    -0.1093 C.ar         1    LIG   0.0000
  18 N18          3.8041    -3.3991    -0.8063 N.pl3        1    LIG   0.0000
  19 C19          4.8280    -4.3415    -0.9462 C.2          1    LIG   0.0000
  20 C20          5.3607    -4.8061    -2.1676 C.2          1    LIG   0.0000
  21 C21          6.3220    -5.7098    -1.8358 C.2          1    LIG   0.0000
  22 O22          7.0837    -6.3967    -2.7135 O.3          1    LIG  -1.0000
  23 N23          6.3952    -5.8097    -0.4808 N.pl3        1    LIG   0.0000
  24 C24          7.2703    -6.6391     0.2307 C.ar         1    LIG   0.0000
  25 C25          8.5214    -6.1576     0.6025 C.ar         1    LIG   0.0000
  26 C26          9.3825    -6.9907     1.3087 C.ar         1    LIG   0.0000
  27 C27          9.0052    -8.2869     1.6430 C.ar         1    LIG   0.0000
  28 C28          7.7495    -8.7477     1.2612 C.ar         1    LIG   0.0000
  29 C29          7.3475   -10.0978     1.6046 C.2          1    LIG   0.0000
  30 O30          8.1276   -10.8398     2.2399 O.co2        1    LIG   0.0000
  31 O31          6.2569   -10.5064     1.2763 O.co2        1    LIG  -1.0000
  32 C32          6.8726    -7.9320     0.5541 C.ar         1    LIG   0.0000
  33 C33          5.4759    -4.9719     0.0678 C.2          1    LIG   0.0000
  34 O34          5.2483    -4.7965     1.3864 O.3          1    LIG   0.0000
  35 C35          3.0175    -1.2758     0.0258 C.ar         1    LIG   0.0000
  36 C36          3.2231    -0.0887     0.7209 C.ar         1    LIG   0.0000
  37 C37          0.5931     2.7340     3.7740 C.ar         1    LIG   0.0000
  38 H            1.0678     3.4675     8.0372 H            1    LIG   0.0000
  39 H           -0.4453     3.5939     7.4360 H            1    LIG   0.0000
  40 H            0.2431     2.1236     7.6123 H            1    LIG   0.0000
  41 H           -1.3951     2.1154     6.3677 H            1    LIG   0.0000
  42 H           -2.7853     1.2537     4.6224 H            1    LIG   0.0000
  43 H           -2.0567     1.3233     2.3465 H            1    LIG   0.0000
  44 H            0.8406     3.0639     1.1962 H            1    LIG   0.0000
  45 H           -0.5521     2.3554     0.7218 H            1    LIG   0.0000
  46 H            2.8099     2.7730     1.9493 H            1    LIG   0.0000
  47 H            3.5374     2.6331     0.4941 H            1    LIG   0.0000
  48 H            5.2884     1.9668     1.8252 H            1    LIG   0.0000
  49 H            4.2941     1.3386     2.9581 H            1    LIG   0.0000
  50 H            6.4062    -0.6004     1.5498 H            1    LIG   0.0000
  51 H            6.0252    -2.6509     0.3471 H            1    LIG   0.0000
  52 H            2.9039    -3.5762    -1.2040 H            1    LIG   0.0000
  53 H            5.0874    -4.5280    -3.0885 H            1    LIG   0.0000
  54 H            8.7975    -5.2262     0.3654 H            1    LIG   0.0000
  55 H           10.2841    -6.6535     1.5796 H            1    LIG   0.0000
  56 H            9.6291    -8.8804     2.1515 H            1    LIG   0.0000
  57 H            5.9712    -8.2694     0.2827 H            1    LIG   0.0000
  58 H            4.5459    -4.1533     1.6914 H            1    LIG   0.0000
  59 H            2.1232    -1.4609    -0.3817 H            1    LIG   0.0000
  60 H            1.4859     3.1251     3.5504 H            1    LIG   0.0000
@<TRIPOS>BOND
   1        1        2 1
   2        2        3 1
   3        3        4 ar
   4        4        5 ar
   5        5        6 ar
   6        6        7 ar
   7        7        8 1
   8        8        9 1
   9        9       10 2
  10        9       11 am
  11       11       12 1
  12       12       13 1
  13       13       14 1
  14       14       15 ar
  15       15       16 ar
  16       16       17 ar
  17       17       18 1
  18       18       19 1
  19       19       20 1
  20       20       21 2
  21       21       22 1
  22       21       23 1
  23       23       24 1
  24       24       25 ar
  25       25       26 ar
  26       26       27 ar
  27       27       28 ar
  28       28       29 1
  29       29       30 ar
  30       29       31 ar
  31       28       32 ar
  32       32       24 ar
  33       23       33 1
  34       33       19 2
  35       33       34 1
  36       17       35 ar
  37       35       36 ar
  38       36       14 ar
  39       36       11 1
  40        7       37 ar
  41       37        3 ar
  42        1       38 1
  43        1       39 1
  44        1       40 1
  45        4       41 1
  46        5       42 1
  47        6       43 1
  48        8       44 1
  49        8       45 1
  50       12       46 1
  51       12       47 1
  52       13       48 1
  53       13       49 1
  54       15       50 1
  55       16       51 1
  56       18       52 1
  57       20       53 1
  58       25       54 1
  59       26       55 1
  60       27       56 1
  61       32       57 1
  62       34       58 1
  63       35       59 1
  64       37       60 1

@<TRIPOS>MOLECULE

  60   64
SMALL
USER_CHARGES
@<TRIPOS>ATOM
   1 C1           2.1885     5.6059    -1.7717 C.3          1    LIG   0.0000
   2 O2           0.9427     5.3455    -2.4013 O.3          1    LIG   0.0000
   3 C3           0.1523     4.4469    -1.7765 C.ar         1    LIG   0.0000
   4 C4          -1.0876     4.1285    -2.3212 C.ar         1    LIG   0.0000
   5 C5          -1.8934     3.2016    -1.6686 C.ar         1    LIG   0.0000
   6 C6          -1.4724     2.5969    -0.4890 C.ar         1    LIG   0.0000
   7 C7          -0.2288     2.9301     0.0378 C.ar         1    LIG   0.0000
   8 C8           0.2400     2.2751     1.3268 C.3          1    LIG   0.0000
   9 C9           1.0000     1.0000     1.0000 C.2          1    LIG   0.0000
  10 O10          0.4000    -0.0067     0.7420 O.2          1    LIG   0.0000
  11 N11          2.4025     1.0000     1.0000 N.am         1    LIG   0.0000
  12 C12          3.2615     2.1409     1.3197 C.3          1    LIG   0.0000
  13 C13          4.4425     1.4553     1.9760 C.3          1    LIG   0.0000
  14 C14          4.4736     0.1244     1.2654 C.ar         1    LIG   0.0000
  15 C15          5.5128    -0.7909     1.1430 C.ar         1    LIG   0.0000
  16 C16          5.2933    -1.9767     0.4463 C.ar         1    LIG   0.0000
  17 C17          4.0395    -2.2077    -0.1093 C.ar         1    LIG   0.0000
  18 N18          3.8041    -3.3991    -0.8063 N.pl3        1    LIG   0.0000
  19 C19          4.8280    -4.3415    -0.9462 C.2          1    LIG   0.0000
  20 C20          5.3607    -4.8061    -2.1676 C.2          1    LIG   0.0000
  21 C21          6.3220    -5.7098    -1.8358 C.2          1    LIG   0.0000
  22 O22          7.0837    -6.3967    -2.7135 O.3          1    LIG  -1.0000
  23 N23          6.3952    -5.8097    -0.4808 N.pl3        1    LIG   0.0000
  24 C24          7.2703    -6.6391     0.2307 C.ar         1    LIG   0.0000
  25 C25          6.8764    -7.9332     0.5558 C.ar         1    LIG   0.0000
  26 C26          7.7539    -8.7480     1.2630 C.ar         1    LIG   0.0000
  27 C27          9.0088    -8.2837     1.6423 C.ar         1    LIG   0.0000
  28 C28          9.3820    -6.9864     1.3066 C.ar         1    LIG   0.0000
  29 C29         10.6881    -6.4932     1.6982 C.2          1    LIG   0.0000
  30 O30         11.4707    -7.2325     2.3335 O.co2        1    LIG   0.0000
  31 O31         11.0205    -5.3660     1.4101 O.co2        1    LIG  -1.0000
  32 C32          8.5203    -6.1541     0.6001 C.ar         1    LIG   0.0000
  33 C33          5.4759    -4.9719     0.0678 C.2          1    LIG   0.0000
  34 O34          5.2483    -4.7965     1.3864 O.3          1    LIG   0.0000
  35 C35          3.0175    -1.2758     0.0258 C.ar         1    LIG   0.0000
  36 C36          3.2231    -0.0887     0.7209 C.ar         1    LIG   0.0000
  37 C37          0.5931     3.8546    -0.5979 C.ar         1    LIG   0.0000
  38 H            2.6980     6.2798    -2.3068 H            1    LIG   0.0000
  39 H            2.0287     5.9628    -0.8513 H            1    LIG   0.0000
  40 H            2.7163     4.7585    -1.7136 H            1    LIG   0.0000
  41 H           -1.3949     4.5597    -3.1695 H            1    LIG   0.0000
  42 H           -2.7865     2.9670    -2.0522 H            1    LIG   0.0000
  43 H           -2.0565     1.9308    -0.0252 H            1    LIG   0.0000
  44 H           -0.5521     2.0545     1.8959 H            1    LIG   0.0000
  45 H            0.8406     2.9038     1.8209 H            1    LIG   0.0000
  46 H            2.8099     2.7730     1.9493 H            1    LIG   0.0000
  47 H            3.5374     2.6331     0.4941 H            1    LIG   0.0000
  48 H            5.2884     1.9668     1.8252 H            1    LIG   0.0000
  49 H            4.2941     1.3386     2.9581 H            1    LIG   0.0000
  50 H            6.4062    -0.6004     1.5498 H            1    LIG   0.0000
  51 H            6.0252    -2.6509     0.3471 H            1    LIG   0.0000
  52 H            2.9039    -3.5762    -1.2040 H            1    LIG   0.0000
  53 H            5.0874    -4.5280    -3.0885 H            1    LIG   0.0000
  54 H            5.9755    -8.2724     0.2849 H            1    LIG   0.0000
  55 H            7.4791    -9.6794     1.5018 H            1    LIG   0.0000
  56 H            9.6351    -8.8752     2.1502 H            1    LIG   0.0000
  57 H            8.7949    -5.2225     0.3618 H            1    LIG   0.0000
  58 H            4.5459    -4.1533     1.6914 H            1    LIG   0.0000
  59 H            2.1232    -1.4609    -0.3817 H            1    LIG   0.0000
  60 H            1.4860     4.0896    -0.2138 H            1    LIG   0.0000
@<TRIPOS>BOND
   1        1        2 1
   2        2        3 1
   3        3        4 ar
   4        4        5 ar
   5        5        6 ar
   6        6        7 ar
   7        7        8 1
   8        8        9 1
   9        9       10 2
  10        9       11 am
  11       11       12 1
  12       12       13 1
  13       13       14 1
  14       14       15 ar
  15       15       16 ar
  16       16       17 ar
  17       17       18 1
  18       18       19 1
  19       19       20 1
  20       20       21 2
  21       21       22 1
  22       21       23 1
  23       23       24 1
  24       24       25 ar
  25       25       26 ar
  26       26       27 ar
  27       27       28 ar
  28       28       29 1
  29       29       30 ar
  30       29       31 ar
  31       28       32 ar
  32       32       24 ar
  33       23       33 1
  34       33       19 2
  35       33       34 1
  36       17       35 ar
  37       35       36 ar
  38       36       14 ar
  39       36       11 1
  40        7       37 ar
  41       37        3 ar
  42        1       38 1
  43        1       39 1
  44        1       40 1
  45        4       41 1
  46        5       42 1
  47        6       43 1
  48        8       44 1
  49        8       45 1
  50       12       46 1
  51       12       47 1
  52       13       48 1
  53       13       49 1
  54       15       50 1
  55       16       51 1
  56       18       52 1
  57       20       53 1
  58       25       54 1
  59       26       55 1
  60       27       56 1
  61       32       57 1
  62       34       58 1
  63       35       59 1
  64       37       60 1

@<TRIPOS>MOLECULE

  60   64
SMALL
USER_CHARGES
@<TRIPOS>ATOM
   1 C1           2.1883     3.7053     5.6455 C.3          1    LIG   0.0000
   2 O2           0.9427     3.1733     6.0723 O.3          1    LIG   0.0000
   3 C3           0.1525     2.6859     5.0923 C.ar         1    LIG   0.0000
   4 C4          -1.0874     2.1447     5.4167 C.ar         1    LIG   0.0000
   5 C5          -1.8928     1.6453     4.3987 C.ar         1    LIG   0.0000
   6 C6          -1.4723     1.6836     3.0736 C.ar         1    LIG   0.0000
   7 C7          -0.2288     2.2292     2.7720 C.ar         1    LIG   0.0000
   8 C8           0.2400     2.2751     1.3268 C.3          1    LIG   0.0000
   9 C9           1.0000     1.0000     1.0000 C.2          1    LIG   0.0000
  10 O10          0.4000    -0.0067     0.7420 O.2          1    LIG   0.0000
  11 N11          2.4025     1.0000     1.0000 N.am         1    LIG   0.0000
  12 C12          3.2615     2.1409     1.3197 C.3          1    LIG   0.0000
  13 C13          4.4425     1.4553     1.9760 C.3          1    LIG   0.0000
  14 C14          4.4736     0.1244     1.2654 C.ar         1    LIG   0.0000
  15 C15          5.5128    -0.7909     1.1430 C.ar         1    LIG   0.0000
  16 C16          5.2933    -1.9767     0.4463 C.ar         1    LIG   0.0000
  17 C17          4.0395    -2.2077    -0.1093 C.ar         1    LIG   0.0000
  18 N18          3.8041    -3.3991    -0.8063 N.pl3        1    LIG   0.0000
  19 C19          4.8280    -4.3415    -0.9462 C.2          1    LIG   0.0000
  20 C20          5.3607    -4.8061    -2.1676 C.2          1    LIG   0.0000
  21 C21          6.3220    -5.7098    -1.8358 C.2          1    LIG   0.0000
  22 O22          7.0837    -6.3967    -2.7135 O.3          1    LIG  -1.0000
  23 N23          6.3952    -5.8097    -0.4808 N.pl3        1    LIG   0.0000
  24 C24          7.2703    -6.6391     0.2307 C.ar         1    LIG   0.0000
  25 C25          6.8764    -7.9332     0.5558 C.ar         1    LIG   0.0000
  26 C26          7.7539    -8.7480     1.2630 C.ar         1    LIG   0.0000
  27 C27          9.0088    -8.2837     1.6423 C.ar         1    LIG   0.0000
  28 C28          9.3820    -6.9864     1.3066 C.ar         1    LIG   0.0000
  29 C29         10.6881    -6.4932     1.6982 C.2          1    LIG   0.0000
  30 O30         11.4707    -7.2325     2.3335 O.co2        1    LIG   0.0000
  31 O31         11.0205    -5.3660     1.4101 O.co2        1    LIG  -1.0000
  32 C32          8.5203    -6.1541     0.6001 C.ar         1    LIG   0.0000
  33 C33          5.4759    -4.9719     0.0678 C.2          1    LIG   0.0000
  34 O34          5.2483    -4.7965     1.3864 O.3          1    LIG   0.0000
  35 C35          3.0175    -1.2758     0.0258 C.ar         1    LIG   0.0000
  36 C36          3.2231    -0.0887     0.7209 C.ar         1    LIG   0.0000
  37 C37          0.5931     2.7340     3.7740 C.ar         1    LIG   0.0000
  38 H            2.6976     4.0389     6.4387 H            1    LIG   0.0000
  39 H            2.7163     2.9906     5.1868 H            1    LIG   0.0000
  40 H            2.0279     4.4609     5.0104 H            1    LIG   0.0000
  41 H           -1.3951     2.1154     6.3677 H            1    LIG   0.0000
  42 H           -2.7853     1.2537     4.6224 H            1    LIG   0.0000
  43 H           -2.0567     1.3233     2.3465 H            1    LIG   0.0000
  44 H            0.8406     3.0639     1.1962 H            1    LIG   0.0000
  45 H           -0.5521     2.3554     0.7218 H            1    LIG   0.0000
  46 H            2.8099     2.7730     1.9493 H            1    LIG   0.0000
  47 H            3.5374     2.6331     0.4941 H            1    LIG   0.0000
  48 H            5.2884     1.9668     1.8252 H            1    LIG   0.0000
  49 H            4.2941     1.3386     2.9581 H            1    LIG   0.0000
  50 H            6.4062    -0.6004     1.5498 H            1    LIG   0.0000
  51 H            6.0252    -2.6509     0.3471 H            1    LIG   0.0000
  52 H            2.9039    -3.5762    -1.2040 H            1    LIG   0.0000
  53 H            5.0874    -4.5280    -3.0885 H            1    LIG   0.0000
  54 H            5.9755    -8.2724     0.2849 H            1    LIG   0.0000
  55 H            7.4791    -9.6794     1.5018 H            1    LIG   0.0000
  56 H            9.6351    -8.8752     2.1502 H            1    LIG   0.0000
  57 H            8.7949    -5.2225     0.3618 H            1    LIG   0.0000
  58 H            4.5459    -4.1533     1.6914 H            1    LIG   0.0000
  59 H            2.1232    -1.4609    -0.3817 H            1    LIG   0.0000
  60 H            1.4859     3.1251     3.5504 H            1    LIG   0.0000
@<TRIPOS>BOND
   1        1        2 1
   2        2        3 1
   3        3        4 ar
   4        4        5 ar
   5        5        6 ar
   6        6        7 ar
   7        7        8 1
   8        8        9 1
   9        9       10 2
  10        9       11 am
  11       11       12 1
  12       12       13 1
  13       13       14 1
  14       14       15 ar
  15       15       16 ar
  16       16       17 ar
  17       17       18 1
  18       18       19 1
  19       19       20 1
  20       20       21 2
  21       21       22 1
  22       21       23 1
  23       23       24 1
  24       24       25 ar
  25       25       26 ar
  26       26       27 ar
  27       27       28 ar
  28       28       29 1
  29       29       30 ar
  30       29       31 ar
  31       28       32 ar
  32       32       24 ar
  33       23       33 1
  34       33       19 2
  35       33       34 1
  36       17       35 ar
  37       35       36 ar
  38       36       14 ar
  39       36       11 1
  40        7       37 ar
  41       37        3 ar
  42        1       38 1
  43        1       39 1
  44        1       40 1
  45        4       41 1
  46        5       42 1
  47        6       43 1
  48        8       44 1
  49        8       45 1
  50       12       46 1
  51       12       47 1
  52       13       48 1
  53       13       49 1
  54       15       50 1
  55       16       51 1
  56       18       52 1
  57       20       53 1
  58       25       54 1
  59       26       55 1
  60       27       56 1
  61       32       57 1
  62       34       58 1
  63       35       59 1
  64       37       60 1

@<TRIPOS>MOLECULE

  60   64
SMALL
USER_CHARGES
@<TRIPOS>ATOM
   1 C1          -3.8442     1.9277    -1.4463 C.3          1    LIG   0.0000
   2 O2          -3.0955     2.8827    -2.1838 O.3          1    LIG   0.0000
   3 C3          -1.8898     3.2011    -1.6667 C.ar         1    LIG   0.0000
   4 C4          -1.0862     4.1289    -2.3215 C.ar         1    LIG   0.0000
   5 C5           0.1541     4.4488    -1.7795 C.ar         1    LIG   0.0000
   6 C6           0.5911     3.8551    -0.6002 C.ar         1    LIG   0.0000
   7 C7          -0.2288     2.9301     0.0378 C.ar         1    LIG   0.0000
   8 C8           0.2400     2.2751     1.3268 C.3          1    LIG   0.0000
   9 C9           1.0000     1.0000     1.0000 C.2          1    LIG   0.0000
  10 O10          0.4000    -0.0067     0.7420 O.2          1    LIG   0.0000
  11 N11          2.4025     1.0000     1.0000 N.am         1    LIG   0.0000
  12 C12          3.2615     2.1409     1.3197 C.3          1    LIG   0.0000
  13 C13          4.4425     1.4553     1.9760 C.3          1    LIG   0.0000
  14 C14          4.4736     0.1244     1.2654 C.ar         1    LIG   0.0000
  15 C15          5.5128    -0.7909     1.1430 C.ar         1    LIG   0.0000
  16 C16          5.2933    -1.9767     0.4463 C.ar         1    LIG   0.0000
  17 C17          4.0395    -2.2077    -0.1093 C.ar         1    LIG   0.0000
  18 N18          3.8041    -3.3991    -0.8063 N.pl3        1    LIG   0.0000
  19 C19          4.8280    -4.3415    -0.9462 C.2          1    LIG   0.0000
  20 C20          4.7953    -5.6715    -0.4754 C.2          1    LIG   0.0000
  21 C21          5.9917    -6.2193    -0.8214 C.2          1    LIG   0.0000
  22 O22          6.3753    -7.4864    -0.5577 O.3          1    LIG  -1.0000
  23 N23          6.7384    -5.2891    -1.4760 N.pl3        1    LIG   0.0000
  24 C24          8.0270    -5.4879    -1.9858 C.ar         1    LIG   0.0000
  25 C25          9.1309    -5.2258    -1.1807 C.ar         1    LIG   0.0000
  26 C26         10.4062    -5.4267    -1.6979 C.ar         1    LIG   0.0000
  27 C27         10.5836    -5.8837    -2.9994 C.ar         1    LIG   0.0000
  28 C28          9.4657    -6.1395    -3.7867 C.ar         1    LIG   0.0000
  29 C29          9.6405    -6.6157    -5.1451 C.2          1    LIG   0.0000
  30 O30         10.7904    -6.7938    -5.6018 O.co2        1    LIG   0.0000
  31 O31          8.6734    -6.8406    -5.8366 O.co2        1    LIG  -1.0000
  32 C32          8.1811    -5.9452    -3.2902 C.ar         1    LIG   0.0000
  33 C33          6.0263    -4.1335    -1.5512 C.2          1    LIG   0.0000
  34 O34          6.4368    -2.9837    -2.1264 O.3          1    LIG   0.0000
  35 C35          3.0175    -1.2758     0.0258 C.ar         1    LIG   0.0000
  36 C36          3.2231    -0.0887     0.7209 C.ar         1    LIG   0.0000
  37 C37         -1.4727     2.5949    -0.4866 C.ar         1    LIG   0.0000
  38 H           -4.7157     1.7596    -1.9069 H            1    LIG   0.0000
  39 H           -3.3281     1.0731    -1.3873 H            1    LIG   0.0000
  40 H           -4.0158     2.2777    -0.5255 H            1    LIG   0.0000
  41 H           -1.3958     4.5595    -3.1693 H            1    LIG   0.0000
  42 H            0.7389     5.1141    -2.2436 H            1    LIG   0.0000
  43 H            1.4837     4.0902    -0.2157 H            1    LIG   0.0000
  44 H           -0.5521     2.0545     1.8959 H            1    LIG   0.0000
  45 H            0.8406     2.9038     1.8209 H            1    LIG   0.0000
  46 H            2.8099     2.7730     1.9493 H            1    LIG   0.0000
  47 H            3.5374     2.6331     0.4941 H            1    LIG   0.0000
  48 H            5.2884     1.9668     1.8252 H            1    LIG   0.0000
  49 H            4.2941     1.3386     2.9581 H            1    LIG   0.0000
  50 H            6.4062    -0.6004     1.5498 H            1    LIG   0.0000
  51 H            6.0252    -2.6509     0.3471 H            1    LIG   0.0000
  52 H            2.9039    -3.5762    -1.2040 H            1    LIG   0.0000
  53 H            4.0462    -6.1196     0.0124 H            1    LIG   0.0000
  54 H            9.0092    -4.8978    -0.2439 H            1    LIG   0.0000
  55 H           11.2057    -5.2402    -1.1268 H            1    LIG   0.0000
  56 H           11.5034    -6.0266    -3.3648 H            1    LIG   0.0000
  57 H            7.3817    -6.1311    -3.8615 H            1    LIG   0.0000
  58 H            5.8362    -2.1842    -2.1301 H            1    LIG   0.0000
  59 H            2.1232    -1.4609    -0.3817 H            1    LIG   0.0000
  60 H           -2.0573     1.9292    -0.0228 H            1    LIG   0.0000
@<TRIPOS>BOND
   1        1        2 1
   2        2        3 1
   3        3        4 ar
   4        4        5 ar
   5        5        6 ar
   6        6        7 ar
   7        7        8 1
   8        8        9 1
   9        9       10 2
  10        9       11 am
  11       11       12 1
  12       12       13 1
  13       13       14 1
  14       14       15 ar
  15       15       16 ar
  16       16       17 ar
  17       17       18 1
  18       18       19 1
  19       19       20 1
  20       20       21 2
  21       21       22 1
  22       21       23 1
  23       23       24 1
  24       24       25 ar
  25       25       26 ar
  26       26       27 ar
  27       27       28 ar
  28       28       29 1
  29       29       30 ar
  30       29       31 ar
  31       28       32 ar
  32       32       24 ar
  33       23       33 1
  34       33       19 2
  35       33       34 1
  36       17       35 ar
  37       35       36 ar
  38       36       14 ar
  39       36       11 1
  40        7       37 ar
  41       37        3 ar
  42        1       38 1
  43        1       39 1
  44        1       40 1
  45        4       41 1
  46        5       42 1
  47        6       43 1
  48        8       44 1
  49        8       45 1
  50       12       46 1
  51       12       47 1
  52       13       48 1
  53       13       49 1
  54       15       50 1
  55       16       51 1
  56       18       52 1
  57       20       53 1
  58       25       54 1
  59       26       55 1
  60       27       56 1
  61       32       57 1
  62       34       58 1
  63       35       59 1
  64       37       60 1

@<TRIPOS>MOLECULE

  60   64
SMALL
USER_CHARGES
@<TRIPOS>ATOM
   1 C1          -3.1635     2.5401    -2.2561 C.3          1    LIG   0.0000
   2 O2          -3.9561     2.1076    -1.1601 O.3          1    LIG   0.0000
   3 C3          -3.2941     1.9364     0.0040 C.ar         1    LIG   0.0000
   4 C4          -3.9894     1.5137     1.1324 C.ar         1    LIG   0.0000
   5 C5          -3.2971     1.3410     2.3262 C.ar         1    LIG   0.0000
   6 C6          -1.9296     1.5843     2.3985 C.ar         1    LIG   0.0000
   7 C7          -1.2544     2.0061     1.2579 C.ar         1    LIG   0.0000
   8 C8           0.2400     2.2751     1.3268 C.3          1    LIG   0.0000
   9 C9           1.0000     1.0000     1.0000 C.2          1    LIG   0.0000
  10 O10          0.4000    -0.0067     0.7420 O.2          1    LIG   0.0000
  11 N11          2.4009     1.0000     1.0000 N.am         1    LIG   0.0000
  12 C12          3.2492    -0.1549     0.7315 C.3          1    LIG   0.0000
  13 C13          4.4486     0.1428     1.6094 C.3          1    LIG   0.0000
  14 C14          4.4915     1.6545     1.6222 C.ar         1    LIG   0.0000
  15 C15          5.5289     2.5295     1.9249 C.ar         1    LIG   0.0000
  16 C16          5.2877     3.8971     1.9024 C.ar         1    LIG   0.0000
  17 C17          4.0170     4.3569     1.5729 C.ar         1    LIG   0.0000
  18 N18          3.7669     5.7336     1.5667 N.pl3        1    LIG   0.0000
  19 C19          4.7912     6.6318     1.8832 C.2          1    LIG   0.0000
  20 C20          5.2984     7.6377     1.0332 C.2          1    LIG   0.0000
  21 C21          6.2790     8.2632     1.7391 C.2          1    LIG   0.0000
  22 O22          7.0268     9.2939     1.2912 O.3          1    LIG  -1.0000
  23 N23          6.3847     7.6871     2.9673 N.pl3        1    LIG   0.0000
  24 C24          7.2841     8.0647     3.9715 C.ar         1    LIG   0.0000
  25 C25          6.9083     9.0286     4.9016 C.ar         1    LIG   0.0000
  26 C26          7.8102     9.3959     5.8946 C.ar         1    LIG   0.0000
  27 C27          9.0706     8.8121     5.9640 C.ar         1    LIG   0.0000
  28 C28          9.4253     7.8502     5.0237 C.ar         1    LIG   0.0000
  29 C29         10.7373     7.2363     5.0876 C.2          1    LIG   0.0000
  30 O30         11.5416     7.5722     5.9836 O.co2        1    LIG   0.0000
  31 O31         11.0537     6.3989     4.2735 O.co2        1    LIG  -1.0000
  32 C32          8.5394     7.4681     4.0219 C.ar         1    LIG   0.0000
  33 C33          5.4733     6.6824     3.0568 C.2          1    LIG   0.0000
  34 O34          5.2797     5.8786     4.1234 O.3          1    LIG   0.0000
  35 C35          3.0076     3.4548     1.2603 C.ar         1    LIG   0.0000
  36 C36          3.2309     2.0861     1.2784 C.ar         1    LIG   0.0000
  37 C37         -1.9268     2.1857     0.0537 C.ar         1    LIG   0.0000
  38 H           -3.7406     2.6372    -3.0670 H            1    LIG   0.0000
  39 H           -2.7450     3.4216    -2.0374 H            1    LIG   0.0000
  40 H           -2.4469     1.8663    -2.4357 H            1    LIG   0.0000
  41 H           -4.9725     1.3366     1.0859 H            1    LIG   0.0000
  42 H           -3.7886     1.0382     3.1427 H            1    LIG   0.0000
  43 H           -1.4378     1.4574     3.2600 H            1    LIG   0.0000
  44 H            0.4816     2.5804     2.2480 H            1    LIG   0.0000
  45 H            0.4816     2.9858     0.6661 H            1    LIG   0.0000
  46 H            3.5057    -0.2036    -0.2338 H            1    LIG   0.0000
  47 H            2.8017    -1.0077     1.0008 H            1    LIG   0.0000
  48 H            4.3185    -0.2211     2.5317 H            1    LIG   0.0000
  49 H            5.2856    -0.2374     1.2160 H            1    LIG   0.0000
  50 H            6.4365     2.1788     2.1558 H            1    LIG   0.0000
  51 H            6.0189     4.5435     2.1205 H            1    LIG   0.0000
  52 H            2.8559     6.0753     1.3360 H            1    LIG   0.0000
  53 H            4.9985     7.8477     0.1027 H            1    LIG   0.0000
  54 H            6.0031     9.4511     4.8568 H            1    LIG   0.0000
  55 H            7.5491    10.0885     6.5670 H            1    LIG   0.0000
  56 H            9.7139     9.0804     6.6810 H            1    LIG   0.0000
  57 H            8.8007     6.7759     3.3491 H            1    LIG   0.0000
  58 H            4.5804     5.1645     4.0910 H            1    LIG   0.0000
  59 H            2.1010     3.7997     1.0171 H            1    LIG   0.0000
  60 H           -1.4354     2.4891    -0.7627 H            1    LIG   0.0000
@<TRIPOS>BOND
   1        1        2 1
   2        2        3 1
   3        3        4 ar
   4        4        5 ar
   5        5        6 ar
   6        6        7 ar
   7        7        8 1
   8        8        9 1
   9        9       10 2
  10        9       11 am
  11       11       12 1
  12       12       13 1
  13       13       14 1
  14       14       15 ar
  15       15       16 ar
  16       16       17 ar
  17       17       18 1
  18       18       19 1
  19       19       20 1
  20       20       21 2
  21       21       22 1
  22       21       23 1
  23       23       24 1
  24       24       25 ar
  25       25       26 ar
  26       26       27 ar
  27       27       28 ar
  28       28       29 1
  29       29       30 ar
  30       29       31 ar
  31       28       32 ar
  32       32       24 ar
  33       23       33 1
  34       33       19 2
  35       33       34 1
  36       17       35 ar
  37       35       36 ar
  38       36       14 ar
  39       36       11 1
  40        7       37 ar
  41       37        3 ar
  42        1       38 1
  43        1       39 1
  44        1       40 1
  45        4       41 1
  46        5       42 1
  47        6       43 1
  48        8       44 1
  49        8       45 1
  50       12       46 1
  51       12       47 1
  52       13       48 1
  53       13       49 1
  54       15       50 1
  55       16       51 1
  56       18       52 1
  57       20       53 1
  58       25       54 1
  59       26       55 1
  60       27       56 1
  61       32       57 1
  62       34       58 1
  63       35       59 1
  64       37       60 1

@<TRIPOS>MOLECULE

  60   64
SMALL
USER_CHARGES
@<TRIPOS>ATOM
   1 C1          -3.1635     2.5401    -2.2561 C.3          1    LIG   0.0000
   2 O2          -3.9561     2.1076    -1.1601 O.3          1    LIG   0.0000
   3 C3          -3.2941     1.9364     0.0040 C.ar         1    LIG   0.0000
   4 C4          -3.9894     1.5137     1.1324 C.ar         1    LIG   0.0000
   5 C5          -3.2971     1.3410     2.3262 C.ar         1    LIG   0.0000
   6 C6          -1.9296     1.5843     2.3985 C.ar         1    LIG   0.0000
   7 C7          -1.2544     2.0061     1.2579 C.ar         1    LIG   0.0000
   8 C8           0.2400     2.2751     1.3268 C.3          1    LIG   0.0000
   9 C9           1.0000     1.0000     1.0000 C.2          1    LIG   0.0000
  10 O10          0.4000    -0.0067     0.7420 O.2          1    LIG   0.0000
  11 N11          2.4009     1.0000     1.0000 N.am         1    LIG   0.0000
  12 C12          3.2492    -0.1549     0.7315 C.3          1    LIG   0.0000
  13 C13          4.4486     0.1428     1.6094 C.3          1    LIG   0.0000
  14 C14          4.4915     1.6545     1.6222 C.ar         1    LIG   0.0000
  15 C15          5.5289     2.5295     1.9249 C.ar         1    LIG   0.0000
  16 C16          5.2877     3.8971     1.9024 C.ar         1    LIG   0.0000
  17 C17          4.0170     4.3569     1.5729 C.ar         1    LIG   0.0000
  18 N18          3.7669     5.7336     1.5667 N.pl3        1    LIG   0.0000
  19 C19          4.7912     6.6318     1.8832 C.2          1    LIG   0.0000
  20 C20          5.4926     6.6857     3.1066 C.2          1    LIG   0.0000
  21 C21          6.3863     7.7037     2.9798 C.2          1    LIG   0.0000
  22 O22          7.2616     8.0965     3.9293 O.3          1    LIG  -1.0000
  23 N23          6.2591     8.2610     1.7450 N.pl3        1    LIG   0.0000
  24 C24          7.0125     9.3328     1.2515 C.ar         1    LIG   0.0000
  25 C25          6.5627    10.6347     1.4472 C.ar         1    LIG   0.0000
  26 C26          7.3193    11.6915     0.9522 C.ar         1    LIG   0.0000
  27 C27          8.5095    11.4585     0.2714 C.ar         1    LIG   0.0000
  28 C28          8.9403    10.1488     0.0873 C.ar         1    LIG   0.0000
  29 C29         10.1796     9.8958    -0.6218 C.2          1    LIG   0.0000
  30 O30         10.8534    10.8517    -1.0631 O.co2        1    LIG   0.0000
  31 O31         10.5614     8.7595    -0.7863 O.co2        1    LIG  -1.0000
  32 C32          8.1994     9.0767     0.5734 C.ar         1    LIG   0.0000
  33 C33          5.2774     7.6057     1.0706 C.2          1    LIG   0.0000
  34 O34          4.8607     7.8743    -0.1846 O.3          1    LIG   0.0000
  35 C35          3.0076     3.4548     1.2603 C.ar         1    LIG   0.0000
  36 C36          3.2309     2.0861     1.2784 C.ar         1    LIG   0.0000
  37 C37         -1.9268     2.1857     0.0537 C.ar         1    LIG   0.0000
  38 H           -3.7406     2.6372    -3.0670 H            1    LIG   0.0000
  39 H           -2.7450     3.4216    -2.0374 H            1    LIG   0.0000
  40 H           -2.4469     1.8663    -2.4357 H            1    LIG   0.0000
  41 H           -4.9725     1.3366     1.0859 H            1    LIG   0.0000
  42 H           -3.7886     1.0382     3.1427 H            1    LIG   0.0000
  43 H           -1.4378     1.4574     3.2600 H            1    LIG   0.0000
  44 H            0.4816     2.5804     2.2480 H            1    LIG   0.0000
  45 H            0.4816     2.9858     0.6661 H            1    LIG   0.0000
  46 H            3.5057    -0.2036    -0.2338 H            1    LIG   0.0000
  47 H            2.8017    -1.0077     1.0008 H            1    LIG   0.0000
  48 H            4.3185    -0.2211     2.5317 H            1    LIG   0.0000
  49 H            5.2856    -0.2374     1.2160 H            1    LIG   0.0000
  50 H            6.4365     2.1788     2.1558 H            1    LIG   0.0000
  51 H            6.0189     4.5435     2.1205 H            1    LIG   0.0000
  52 H            2.8559     6.0753     1.3360 H            1    LIG   0.0000
  53 H            5.3599     6.0964     3.9035 H            1    LIG   0.0000
  54 H            5.7081    10.8080     1.9367 H            1    LIG   0.0000
  55 H            7.0035    12.6307     1.0875 H            1    LIG   0.0000
  56 H            9.0489    12.2231    -0.0813 H            1    LIG   0.0000
  57 H            8.5149     8.1376     0.4376 H            1    LIG   0.0000
  58 H            4.1274     7.3321    -0.5948 H            1    LIG   0.0000
  59 H            2.1010     3.7997     1.0171 H            1    LIG   0.0000
  60 H           -1.4354     2.4891    -0.7627 H            1    LIG   0.0000
@<TRIPOS>BOND
   1        1        2 1
   2        2        3 1
   3        3        4 ar
   4        4        5 ar
   5        5        6 ar
   6        6        7 ar
   7        7        8 1
   8        8        9 1
   9        9       10 2
  10        9       11 am
  11       11       12 1
  12       12       13 1
  13       13       14 1
  14       14       15 ar
  15       15       16 ar
  16       16       17 ar
  17       17       18 1
  18       18       19 1
  19       19       20 1
  20       20       21 2
  21       21       22 1
  22       21       23 1
  23       23       24 1
  24       24       25 ar
  25       25       26 ar
  26       26       27 ar
  27       27       28 ar
  28       28       29 1
  29       29       30 ar
  30       29       31 ar
  31       28       32 ar
  32       32       24 ar
  33       23       33 1
  34       33       19 2
  35       33       34 1
  36       17       35 ar
  37       35       36 ar
  38       36       14 ar
  39       36       11 1
  40        7       37 ar
  41       37        3 ar
  42        1       38 1
  43        1       39 1
  44        1       40 1
  45        4       41 1
  46        5       42 1
  47        6       43 1
  48        8       44 1
  49        8       45 1
  50       12       46 1
  51       12       47 1
  52       13       48 1
  53       13       49 1
  54       15       50 1
  55       16       51 1
  56       18       52 1
  57       20       53 1
  58       25       54 1
  59       26       55 1
  60       27       56 1
  61       32       57 1
  62       34       58 1
  63       35       59 1
  64       37       60 1

@<TRIPOS>MOLECULE

  60   64
SMALL
USER_CHARGES
@<TRIPOS>ATOM
   1 C1          -3.4389     3.5494    -3.3897 C.3          1    LIG   0.0000
   2 O2          -3.0955     2.8827    -2.1838 O.3          1    LIG   0.0000
   3 C3          -1.8898     3.2011    -1.6667 C.ar         1    LIG   0.0000
   4 C4          -1.0862     4.1289    -2.3215 C.ar         1    LIG   0.0000
   5 C5           0.1541     4.4488    -1.7795 C.ar         1    LIG   0.0000
   6 C6           0.5911     3.8551    -0.6002 C.ar         1    LIG   0.0000
   7 C7          -0.2288     2.9301     0.0378 C.ar         1    LIG   0.0000
   8 C8           0.2400     2.2751     1.3268 C.3          1    LIG   0.0000
   9 C9           1.0000     1.0000     1.0000 C.2          1    LIG   0.0000
  10 O10          0.4000    -0.0067     0.7420 O.2          1    LIG   0.0000
  11 N11          2.4009     1.0000     1.0000 N.am         1    LIG   0.0000
  12 C12          3.2492     2.1549     1.2685 C.3          1    LIG   0.0000
  13 C13          4.4486     1.8572     0.3906 C.3          1    LIG   0.0000
  14 C14          4.4915     0.3455     0.3778 C.ar         1    LIG   0.0000
  15 C15          5.5289    -0.5295     0.0751 C.ar         1    LIG   0.0000
  16 C16          5.2877    -1.8971     0.0976 C.ar         1    LIG   0.0000
  17 C17          4.0170    -2.3569     0.4271 C.ar         1    LIG   0.0000
  18 N18          3.7669    -3.7336     0.4333 N.pl3        1    LIG   0.0000
  19 C19          4.7912    -4.6318     0.1168 C.2          1    LIG   0.0000
  20 C20          4.7742    -5.5622    -0.9441 C.2          1    LIG   0.0000
  21 C21          5.9596    -6.2265    -0.8769 C.2          1    LIG   0.0000
  22 O22          6.3520    -7.2094    -1.7148 O.3          1    LIG  -1.0000
  23 N23          6.6866    -5.7422     0.1663 N.pl3        1    LIG   0.0000
  24 C24          7.9611    -6.1798     0.5462 C.ar         1    LIG   0.0000
  25 C25          9.0863    -5.5683     0.0027 C.ar         1    LIG   0.0000
  26 C26         10.3472    -6.0116     0.3873 C.ar         1    LIG   0.0000
  27 C27         10.4893    -7.0496     1.3020 C.ar         1    LIG   0.0000
  28 C28          9.3506    -7.6466     1.8329 C.ar         1    LIG   0.0000
  29 C29          9.4887    -8.7299     2.7867 C.2          1    LIG   0.0000
  30 O30         10.6259    -9.1219     3.1270 O.co2        1    LIG   0.0000
  31 O31          8.5032    -9.2546     3.2532 O.co2        1    LIG  -1.0000
  32 C32          8.0799    -7.2197     1.4621 C.ar         1    LIG   0.0000
  33 C33          5.9692    -4.7642     0.7801 C.2          1    LIG   0.0000
  34 O34          6.3590    -4.0503     1.8570 O.3          1    LIG   0.0000
  35 C35          3.0076    -1.4548     0.7397 C.ar         1    LIG   0.0000
  36 C36          3.2309    -0.0861     0.7216 C.ar         1    LIG   0.0000
  37 C37         -1.4727     2.5949    -0.4866 C.ar         1    LIG   0.0000
  38 H           -4.3437     3.2484    -3.6910 H            1    LIG   0.0000
  39 H           -3.4512     4.5369    -3.2327 H            1    LIG   0.0000
  40 H           -2.7635     3.3323    -4.0945 H            1    LIG   0.0000
  41 H           -1.3958     4.5595    -3.1693 H            1    LIG   0.0000
  42 H            0.7389     5.1141    -2.2436 H            1    LIG   0.0000
  43 H            1.4837     4.0902    -0.2157 H            1    LIG   0.0000
  44 H           -0.5521     2.0545     1.8959 H            1    LIG   0.0000
  45 H            0.8406     2.9038     1.8209 H            1    LIG   0.0000
  46 H            3.5057     2.2036     2.2338 H            1    LIG   0.0000
  47 H            2.8017     3.0077     0.9992 H            1    LIG   0.0000
  48 H            4.3185     2.2211    -0.5317 H            1    LIG   0.0000
  49 H            5.2856     2.2374     0.7840 H            1    LIG   0.0000
  50 H            6.4365    -0.1788    -0.1558 H            1    LIG   0.0000
  51 H            6.0189    -2.5435    -0.1205 H            1    LIG   0.0000
  52 H            2.8559    -4.0753     0.6640 H            1    LIG   0.0000
  53 H            4.0410    -5.7041    -1.6092 H            1    LIG   0.0000
  54 H            8.9899    -4.8210    -0.6547 H            1    LIG   0.0000
  55 H           11.1617    -5.5785     0.0014 H            1    LIG   0.0000
  56 H           11.3990    -7.3630     1.5746 H            1    LIG   0.0000
  57 H            7.2653    -7.6531     1.8476 H            1    LIG   0.0000
  58 H            5.7561    -3.3486     2.2367 H            1    LIG   0.0000
  59 H            2.1010    -1.7997     0.9829 H            1    LIG   0.0000
  60 H           -2.0573     1.9292    -0.0228 H            1    LIG   0.0000
@<TRIPOS>BOND
   1        1        2 1
   2        2        3 1
   3        3        4 ar
   4        4        5 ar
   5        5        6 ar
   6        6        7 ar
   7        7        8 1
   8        8        9 1
   9        9       10 2
  10        9       11 am
  11       11       12 1
  12       12       13 1
  13       13       14 1
  14       14       15 ar
  15       15       16 ar
  16       16       17 ar
  17       17       18 1
  18       18       19 1
  19       19       20 1
  20       20       21 2
  21       21       22 1
  22       21       23 1
  23       23       24 1
  24       24       25 ar
  25       25       26 ar
  26       26       27 ar
  27       27       28 ar
  28       28       29 1
  29       29       30 ar
  30       29       31 ar
  31       28       32 ar
  32       32       24 ar
  33       23       33 1
  34       33       19 2
  35       33       34 1
  36       17       35 ar
  37       35       36 ar
  38       36       14 ar
  39       36       11 1
  40        7       37 ar
  41       37        3 ar
  42        1       38 1
  43        1       39 1
  44        1       40 1
  45        4       41 1
  46        5       42 1
  47        6       43 1
  48        8       44 1
  49        8       45 1
  50       12       46 1
  51       12       47 1
  52       13       48 1
  53       13       49 1
  54       15       50 1
  55       16       51 1
  56       18       52 1
  57       20       53 1
  58       25       54 1
  59       26       55 1
  60       27       56 1
  61       32       57 1
  62       34       58 1
  63       35       59 1
  64       37       60 1

@<TRIPOS>MOLECULE

  60   64
SMALL
USER_CHARGES
@<TRIPOS>ATOM
   1 C1           0.4126     5.8988    -3.5968 C.3          1    LIG   0.0000
   2 O2           0.9427     5.3455    -2.4013 O.3          1    LIG   0.0000
   3 C3           0.1523     4.4469    -1.7765 C.ar         1    LIG   0.0000
   4 C4          -1.0876     4.1285    -2.3212 C.ar         1    LIG   0.0000
   5 C5          -1.8934     3.2016    -1.6686 C.ar         1    LIG   0.0000
   6 C6          -1.4724     2.5969    -0.4890 C.ar         1    LIG   0.0000
   7 C7          -0.2288     2.9301     0.0378 C.ar         1    LIG   0.0000
   8 C8           0.2400     2.2751     1.3268 C.3          1    LIG   0.0000
   9 C9           1.0000     1.0000     1.0000 C.2          1    LIG   0.0000
  10 O10          0.4000    -0.0067     0.7420 O.2          1    LIG   0.0000
  11 N11          2.4009     1.0000     1.0000 N.am         1    LIG   0.0000
  12 C12          3.2492     2.1549     1.2685 C.3          1    LIG   0.0000
  13 C13          4.4486     1.8572     0.3906 C.3          1    LIG   0.0000
  14 C14          4.4915     0.3455     0.3778 C.ar         1    LIG   0.0000
  15 C15          5.5289    -0.5295     0.0751 C.ar         1    LIG   0.0000
  16 C16          5.2877    -1.8971     0.0976 C.ar         1    LIG   0.0000
  17 C17          4.0170    -2.3569     0.4271 C.ar         1    LIG   0.0000
  18 N18          3.7669    -3.7336     0.4333 N.pl3        1    LIG   0.0000
  19 C19          4.7912    -4.6318     0.1168 C.2          1    LIG   0.0000
  20 C20          5.2984    -5.6377     0.9668 C.2          1    LIG   0.0000
  21 C21          6.2790    -6.2632     0.2609 C.2          1    LIG   0.0000
  22 O22          7.0268    -7.2939     0.7088 O.3          1    LIG  -1.0000
  23 N23          6.3847    -5.6871    -0.9673 N.pl3        1    LIG   0.0000
  24 C24          7.2841    -6.0647    -1.9715 C.ar         1    LIG   0.0000
  25 C25          6.9083    -7.0286    -2.9016 C.ar         1    LIG   0.0000
  26 C26          7.8102    -7.3959    -3.8946 C.ar         1    LIG   0.0000
  27 C27          9.0706    -6.8121    -3.9640 C.ar         1    LIG   0.0000
  28 C28          9.4253    -5.8502    -3.0237 C.ar         1    LIG   0.0000
  29 C29         10.7373    -5.2363    -3.0876 C.2          1    LIG   0.0000
  30 O30         11.5416    -5.5722    -3.9836 O.co2        1    LIG   0.0000
  31 O31         11.0537    -4.3989    -2.2735 O.co2        1    LIG  -1.0000
  32 C32          8.5394    -5.4681    -2.0219 C.ar         1    LIG   0.0000
  33 C33          5.4733    -4.6824    -1.0568 C.2          1    LIG   0.0000
  34 O34          5.2797    -3.8786    -2.1234 O.3          1    LIG   0.0000
  35 C35          3.0076    -1.4548     0.7397 C.ar         1    LIG   0.0000
  36 C36          3.2309    -0.0861     0.7216 C.ar         1    LIG   0.0000
  37 C37          0.5931     3.8546    -0.5979 C.ar         1    LIG   0.0000
  38 H            1.0676     6.5487    -3.9823 H            1    LIG   0.0000
  39 H            0.2423     5.1665    -4.2562 H            1    LIG   0.0000
  40 H           -0.4453     6.3709    -3.3939 H            1    LIG   0.0000
  41 H           -1.3949     4.5597    -3.1695 H            1    LIG   0.0000
  42 H           -2.7865     2.9670    -2.0522 H            1    LIG   0.0000
  43 H           -2.0565     1.9308    -0.0252 H            1    LIG   0.0000
  44 H           -0.5521     2.0545     1.8959 H            1    LIG   0.0000
  45 H            0.8406     2.9038     1.8209 H            1    LIG   0.0000
  46 H            3.5057     2.2036     2.2338 H            1    LIG   0.0000
  47 H            2.8017     3.0077     0.9992 H            1    LIG   0.0000
  48 H            4.3185     2.2211    -0.5317 H            1    LIG   0.0000
  49 H            5.2856     2.2374     0.7840 H            1    LIG   0.0000
  50 H            6.4365    -0.1788    -0.1558 H            1    LIG   0.0000
  51 H            6.0189    -2.5435    -0.1205 H            1    LIG   0.0000
  52 H            2.8559    -4.0753     0.6640 H            1    LIG   0.0000
  53 H            4.9985    -5.8477     1.8973 H            1    LIG   0.0000
  54 H            6.0031    -7.4511    -2.8568 H            1    LIG   0.0000
  55 H            7.5491    -8.0885    -4.5670 H            1    LIG   0.0000
  56 H            9.7139    -7.0804    -4.6810 H            1    LIG   0.0000
  57 H            8.8007    -4.7759    -1.3491 H            1    LIG   0.0000
  58 H            4.5804    -3.1645    -2.0910 H            1    LIG   0.0000
  59 H            2.1010    -1.7997     0.9829 H            1    LIG   0.0000
  60 H            1.4860     4.0896    -0.2138 H            1    LIG   0.0000
@<TRIPOS>BOND
   1        1        2 1
   2        2        3 1
   3        3        4 ar
   4        4        5 ar
   5        5        6 ar
   6        6        7 ar
   7        7        8 1
   8        8        9 1
   9        9       10 2
  10        9       11 am
  11       11       12 1
  12       12       13 1
  13       13       14 1
  14       14       15 ar
  15       15       16 ar
  16       16       17 ar
  17       17       18 1
  18       18       19 1
  19       19       20 1
  20       20       21 2
  21       21       22 1
  22       21       23 1
  23       23       24 1
  24       24       25 ar
  25       25       26 ar
  26       26       27 ar
  27       27       28 ar
  28       28       29 1
  29       29       30 ar
  30       29       31 ar
  31       28       32 ar
  32       32       24 ar
  33       23       33 1
  34       33       19 2
  35       33       34 1
  36       17       35 ar
  37       35       36 ar
  38       36       14 ar
  39       36       11 1
  40        7       37 ar
  41       37        3 ar
  42        1       38 1
  43        1       39 1
  44        1       40 1
  45        4       41 1
  46        5       42 1
  47        6       43 1
  48        8       44 1
  49        8       45 1
  50       12       46 1
  51       12       47 1
  52       13       48 1
  53       13       49 1
  54       15       50 1
  55       16       51 1
  56       18       52 1
  57       20       53 1
  58       25       54 1
  59       26       55 1
  60       27       56 1
  61       32       57 1
  62       34       58 1
  63       35       59 1
  64       37       60 1

@<TRIPOS>MOLECULE

  60   64
SMALL
USER_CHARGES
@<TRIPOS>ATOM
   1 C1           2.1885     5.6059    -1.7717 C.3          1    LIG   0.0000
   2 O2           0.9427     5.3455    -2.4013 O.3          1    LIG   0.0000
   3 C3           0.1523     4.4469    -1.7765 C.ar         1    LIG   0.0000
   4 C4          -1.0876     4.1285    -2.3212 C.ar         1    LIG   0.0000
   5 C5          -1.8934     3.2016    -1.6686 C.ar         1    LIG   0.0000
   6 C6          -1.4724     2.5969    -0.4890 C.ar         1    LIG   0.0000
   7 C7          -0.2288     2.9301     0.0378 C.ar         1    LIG   0.0000
   8 C8           0.2400     2.2751     1.3268 C.3          1    LIG   0.0000
   9 C9           1.0000     1.0000     1.0000 C.2          1    LIG   0.0000
  10 O10          0.4000    -0.0067     0.7420 O.2          1    LIG   0.0000
  11 N11          2.4009     1.0000     1.0000 N.am         1    LIG   0.0000
  12 C12          3.2492     2.1549     1.2685 C.3          1    LIG   0.0000
  13 C13          4.4486     1.8572     0.3906 C.3          1    LIG   0.0000
  14 C14          4.4915     0.3455     0.3778 C.ar         1    LIG   0.0000
  15 C15          5.5289    -0.5295     0.0751 C.ar         1    LIG   0.0000
  16 C16          5.2877    -1.8971     0.0976 C.ar         1    LIG   0.0000
  17 C17          4.0170    -2.3569     0.4271 C.ar         1    LIG   0.0000
  18 N18          3.7669    -3.7336     0.4333 N.pl3        1    LIG   0.0000
  19 C19          4.7912    -4.6318     0.1168 C.2          1    LIG   0.0000
  20 C20          5.2984    -5.6377     0.9668 C.2          1    LIG   0.0000
  21 C21          6.2790    -6.2632     0.2609 C.2          1    LIG   0.0000
  22 O22          7.0268    -7.2939     0.7088 O.3          1    LIG  -1.0000
  23 N23          6.3847    -5.6871    -0.9673 N.pl3        1    LIG   0.0000
  24 C24          7.2841    -6.0647    -1.9715 C.ar         1    LIG   0.0000
  25 C25          8.5409    -5.4706    -2.0251 C.ar         1    LIG   0.0000
  26 C26          9.4260    -5.8533    -3.0274 C.ar         1    LIG   0.0000
  27 C27          9.0677    -6.8158    -3.9652 C.ar         1    LIG   0.0000
  28 C28          7.8059    -7.3969    -3.8926 C.ar         1    LIG   0.0000
  29 C29          7.4230    -8.4008    -4.8663 C.2          1    LIG   0.0000
  30 O30          8.2249    -8.7391    -5.7636 O.co2        1    LIG   0.0000
  31 O31          6.3274    -8.9112    -4.8102 O.co2        1    LIG  -1.0000
  32 C32          6.9047    -7.0289    -2.8991 C.ar         1    LIG   0.0000
  33 C33          5.4733    -4.6824    -1.0568 C.2          1    LIG   0.0000
  34 O34          5.2797    -3.8786    -2.1234 O.3          1    LIG   0.0000
  35 C35          3.0076    -1.4548     0.7397 C.ar         1    LIG   0.0000
  36 C36          3.2309    -0.0861     0.7216 C.ar         1    LIG   0.0000
  37 C37          0.5931     3.8546    -0.5979 C.ar         1    LIG   0.0000
  38 H            2.6980     6.2798    -2.3068 H            1    LIG   0.0000
  39 H            2.0287     5.9628    -0.8513 H            1    LIG   0.0000
  40 H            2.7163     4.7585    -1.7136 H            1    LIG   0.0000
  41 H           -1.3949     4.5597    -3.1695 H            1    LIG   0.0000
  42 H           -2.7865     2.9670    -2.0522 H            1    LIG   0.0000
  43 H           -2.0565     1.9308    -0.0252 H            1    LIG   0.0000
  44 H           -0.5521     2.0545     1.8959 H            1    LIG   0.0000
  45 H            0.8406     2.9038     1.8209 H            1    LIG   0.0000
  46 H            3.5057     2.2036     2.2338 H            1    LIG   0.0000
  47 H            2.8017     3.0077     0.9992 H            1    LIG   0.0000
  48 H            4.3185     2.2211    -0.5317 H            1    LIG   0.0000
  49 H            5.2856     2.2374     0.7840 H            1    LIG   0.0000
  50 H            6.4365    -0.1788    -0.1558 H            1    LIG   0.0000
  51 H            6.0189    -2.5435    -0.1205 H            1    LIG   0.0000
  52 H            2.8559    -4.0753     0.6640 H            1    LIG   0.0000
  53 H            4.9985    -5.8477     1.8973 H            1    LIG   0.0000
  54 H            8.8041    -4.7785    -1.3529 H            1    LIG   0.0000
  55 H           10.3313    -5.4311    -3.0743 H            1    LIG   0.0000
  56 H            9.7092    -7.0868    -4.6828 H            1    LIG   0.0000
  57 H            5.9992    -7.4507    -2.8526 H            1    LIG   0.0000
  58 H            4.5804    -3.1645    -2.0910 H            1    LIG   0.0000
  59 H            2.1010    -1.7997     0.9829 H            1    LIG   0.0000
  60 H            1.4860     4.0896    -0.2138 H            1    LIG   0.0000
@<TRIPOS>BOND
   1        1        2 1
   2        2        3 1
   3        3        4 ar
   4        4        5 ar
   5        5        6 ar
   6        6        7 ar
   7        7        8 1
   8        8        9 1
   9        9       10 2
  10        9       11 am
  11       11       12 1
  12       12       13 1
  13       13       14 1
  14       14       15 ar
  15       15       16 ar
  16       16       17 ar
  17       17       18 1
  18       18       19 1
  19       19       20 1
  20       20       21 2
  21       21       22 1
  22       21       23 1
  23       23       24 1
  24       24       25 ar
  25       25       26 ar
  26       26       27 ar
  27       27       28 ar
  28       28       29 1
  29       29       30 ar
  30       29       31 ar
  31       28       32 ar
  32       32       24 ar
  33       23       33 1
  34       33       19 2
  35       33       34 1
  36       17       35 ar
  37       35       36 ar
  38       36       14 ar
  39       36       11 1
  40        7       37 ar
  41       37        3 ar
  42        1       38 1
  43        1       39 1
  44        1       40 1
  45        4       41 1
  46        5       42 1
  47        6       43 1
  48        8       44 1
  49        8       45 1
  50       12       46 1
  51       12       47 1
  52       13       48 1
  53       13       49 1
  54       15       50 1
  55       16       51 1
  56       18       52 1
  57       20       53 1
  58       25       54 1
  59       26       55 1
  60       27       56 1
  61       32       57 1
  62       34       58 1
  63       35       59 1
  64       37       60 1

