@<TRIPOS>MOLECULE
*****
 60 64 0 0 0
SMALL
USER_CHARGES

@<TRIPOS>ATOM
      1 C1         -5.3479    0.7081    3.2563 C.3     1  LIG1        0.0000
      2 O2         -3.9560    0.9318    3.4265 O.2     1  LIG1        0.0000
      3 C3         -3.2940    1.3413    2.3235 C.3     1  LIG1        0.0000
      4 C4         -3.9893    1.5137    1.1309 C.3     1  LIG1        0.0000
      5 C5         -3.2968    1.9357    0.0011 C.3     1  LIG1        0.0000
      6 C6         -1.9296    2.1848    0.0549 C.3     1  LIG1        0.0000
      7 C7         -1.2544    2.0061    1.2579 C.3     1  LIG1        0.0000
      8 C8          0.2400    2.2751    1.3268 C.3     1  LIG1        0.0000
      9 C9          1.0000    1.0000    1.0000 C.2     1  LIG1        0.0000
     10 O10         0.4000   -0.0067    0.7420 O.2     1  LIG1        0.0000
     11 N11         2.4025    1.0000    1.0000 N.am    1  LIG1        0.0000
     12 C12         3.2615   -0.1409    0.6803 C.3     1  LIG1        0.0000
     13 C13         4.4425    0.5447    0.0240 C.3     1  LIG1        0.0000
     14 C14         4.4736    1.8756    0.7346 C.3     1  LIG1        0.0000
     15 C15         5.5128    2.7909    0.8570 C.3     1  LIG1        0.0000
     16 C16         5.2933    3.9767    1.5537 C.3     1  LIG1        0.0000
     17 C17         4.0395    4.2077    2.1093 C.3     1  LIG1        0.0000
     18 N18         3.8041    5.3991    2.8063 N.pl3   1  LIG1        0.0000
     19 C19         4.8280    6.3415    2.9462 C.2     1  LIG1        0.0000
     20 C20         5.3607    6.8061    4.1676 C.2     1  LIG1        0.0000
     21 C21         6.3220    7.7098    3.8358 C.2     1  LIG1        0.0000
     22 O22         7.0837    8.3967    4.7135 O.2     1  LIG1       -1.0000
     23 N23         6.3952    7.8097    2.4808 N.pl3   1  LIG1        0.0000
     24 C24         7.2703    8.6391    1.7693 C.3     1  LIG1        0.0000
     25 C25         8.5214    8.1576    1.3975 C.3     1  LIG1        0.0000
     26 C26         9.3825    8.9907    0.6913 C.3     1  LIG1        0.0000
     27 C27         9.0052   10.2869    0.3570 C.3     1  LIG1        0.0000
     28 C28         7.7495   10.7477    0.7388 C.3     1  LIG1        0.0000
     29 C29         7.3475   12.0978    0.3954 C.3     1  LIG1        0.0000
     30 O30         8.1276   12.8398   -0.2399 O.2     1  LIG1        0.0000
     31 O31         6.2569   12.5064    0.7237 O.2     1  LIG1       -1.0000
     32 C32         6.8726    9.9320    1.4459 C.3     1  LIG1        0.0000
     33 C33         5.4759    6.9719    1.9322 C.2     1  LIG1        0.0000
     34 O34         5.2483    6.7965    0.6136 O.2     1  LIG1        0.0000
     35 C35         3.0175    3.2758    1.9742 C.3     1  LIG1        0.0000
     36 C36         3.2231    2.0887    1.2791 C.3     1  LIG1        0.0000
     37 C37        -1.9268    1.5843    2.4000 C.3     1  LIG1        0.0000
     38 H          -5.7461    0.4095    4.1237 H       1  LIG1        0.0000
     39 H          -5.7883    1.5562    2.9618 H       1  LIG1        0.0000
     40 H          -5.4896    0.0009    2.5636 H       1  LIG1        0.0000
     41 H          -4.9726    1.3367    1.0867 H       1  LIG1        0.0000
     42 H          -3.7881    2.0615   -0.8608 H       1  LIG1        0.0000
     43 H          -1.4379    2.4887   -0.7612 H       1  LIG1        0.0000
     44 H           0.4816    2.5804    2.2480 H       1  LIG1        0.0000
     45 H           0.4816    2.9858    0.6661 H       1  LIG1        0.0000
     46 H           2.8099   -0.7730    0.0507 H       1  LIG1        0.0000
     47 H           3.5374   -0.6331    1.5059 H       1  LIG1        0.0000
     48 H           5.2884    0.0332    0.1748 H       1  LIG1        0.0000
     49 H           4.2941    0.6614   -0.9581 H       1  LIG1        0.0000
     50 H           6.4062    2.6004    0.4502 H       1  LIG1        0.0000
     51 H           6.0252    4.6509    1.6529 H       1  LIG1        0.0000
     52 H           2.9039    5.5762    3.2040 H       1  LIG1        0.0000
     53 H           5.0874    6.5280    5.0885 H       1  LIG1        0.0000
     54 H           8.7975    7.2262    1.6346 H       1  LIG1        0.0000
     55 H          10.2841    8.6535    0.4204 H       1  LIG1        0.0000
     56 H           9.6291   10.8804   -0.1515 H       1  LIG1        0.0000
     57 H           5.9712   10.2694    1.7173 H       1  LIG1        0.0000
     58 H           4.5459    6.1533    0.3086 H       1  LIG1        0.0000
     59 H           2.1232    3.4609    2.3817 H       1  LIG1        0.0000
     60 H          -1.4354    1.4579    3.2617 H       1  LIG1        0.0000
@<TRIPOS>UNITY_ATOM_ATTR
22 1
charge -1
30 1
charge -1
@<TRIPOS>BOND
     1     1     2    1
     2     2     3    1
     3     3     4   ar
     4     4     5   ar
     5     5     6   ar
     6     6     7   ar
     7     7     8    1
     8     8     9    1
     9     9    10    2
    10     9    11   am
    11    11    12    1
    12    12    13    1
    13    13    14    1
    14    14    15   ar
    15    15    16   ar
    16    16    17   ar
    17    17    18    1
    18    18    19    1
    19    19    20    1
    20    20    21    2
    21    21    22    1
    22    21    23    1
    23    23    24    1
    24    24    25   ar
    25    25    26   ar
    26    26    27   ar
    27    27    28   ar
    28    28    29    1
    29    29    30    1
    30    29    31    2
    31    28    32   ar
    32    32    24   ar
    33    23    33    1
    34    33    19    2
    35    33    34    1
    36    17    35   ar
    37    35    36   ar
    38    36    14   ar
    39    36    11    1
    40     7    37   ar
    41    37     3   ar
    42     1    38    1
    43     1    39    1
    44     1    40    1
    45     4    41    1
    46     5    42    1
    47     6    43    1
    48     8    44    1
    49     8    45    1
    50    12    46    1
    51    12    47    1
    52    13    48    1
    53    13    49    1
    54    15    50    1
    55    16    51    1
    56    18    52    1
    57    20    53    1
    58    25    54    1
    59    26    55    1
    60    27    56    1
    61    32    57    1
    62    34    58    1
    63    35    59    1
    64    37    60    1
