@<TRIPOS>MOLECULE
*****
 60 64 0 0 0
SMALL
USER_CHARGES

@<TRIPOS>ATOM
      1 C1          0.4129    3.0829    7.3866 C.3     1  LIG1        0.0000
      2 O2          0.9427    3.1733    6.0723 O.2     1  LIG1        0.0000
      3 C3          0.1525    2.6859    5.0923 C.3     1  LIG1        0.0000
      4 C4         -1.0874    2.1447    5.4167 C.3     1  LIG1        0.0000
      5 C5         -1.8928    1.6453    4.3987 C.3     1  LIG1        0.0000
      6 C6         -1.4723    1.6836    3.0736 C.3     1  LIG1        0.0000
      7 C7         -0.2288    2.2292    2.7720 C.3     1  LIG1        0.0000
      8 C8          0.2400    2.2751    1.3268 C.3     1  LIG1        0.0000
      9 C9          1.0000    1.0000    1.0000 C.2     1  LIG1        0.0000
     10 O10         0.4000   -0.0067    0.7420 O.2     1  LIG1        0.0000
     11 N11         2.4025    1.0000    1.0000 N.am    1  LIG1        0.0000
     12 C12         3.2615    2.1409    1.3197 C.3     1  LIG1        0.0000
     13 C13         4.4425    1.4553    1.9760 C.3     1  LIG1        0.0000
     14 C14         4.4736    0.1244    1.2654 C.3     1  LIG1        0.0000
     15 C15         5.5128   -0.7909    1.1430 C.3     1  LIG1        0.0000
     16 C16         5.2933   -1.9767    0.4463 C.3     1  LIG1        0.0000
     17 C17         4.0395   -2.2077   -0.1093 C.3     1  LIG1        0.0000
     18 N18         3.8041   -3.3991   -0.8063 N.pl3   1  LIG1        0.0000
     19 C19         4.8280   -4.3415   -0.9462 C.2     1  LIG1        0.0000
     20 C20         5.3607   -4.8061   -2.1676 C.2     1  LIG1        0.0000
     21 C21         6.3220   -5.7098   -1.8358 C.2     1  LIG1        0.0000
     22 O22         7.0837   -6.3967   -2.7135 O.2     1  LIG1       -1.0000
     23 N23         6.3952   -5.8097   -0.4808 N.pl3   1  LIG1        0.0000
     24 C24         7.2703   -6.6391    0.2307 C.3     1  LIG1        0.0000
     25 C25         8.5214   -6.1576    0.6025 C.3     1  LIG1        0.0000
     26 C26         9.3825   -6.9907    1.3087 C.3     1  LIG1        0.0000
     27 C27         9.0052   -8.2869    1.6430 C.3     1  LIG1        0.0000
     28 C28         7.7495   -8.7477    1.2612 C.3     1  LIG1        0.0000
     29 C29         7.3475  -10.0978    1.6046 C.3     1  LIG1        0.0000
     30 O30         8.1276  -10.8398    2.2399 O.2     1  LIG1        0.0000
     31 O31         6.2569  -10.5064    1.2763 O.2     1  LIG1       -1.0000
     32 C32         6.8726   -7.9320    0.5541 C.3     1  LIG1        0.0000
     33 C33         5.4759   -4.9719    0.0678 C.2     1  LIG1        0.0000
     34 O34         5.2483   -4.7965    1.3864 O.2     1  LIG1        0.0000
     35 C35         3.0175   -1.2758    0.0258 C.3     1  LIG1        0.0000
     36 C36         3.2231   -0.0887    0.7209 C.3     1  LIG1        0.0000
     37 C37         0.5931    2.7340    3.7740 C.3     1  LIG1        0.0000
     38 H           1.0678    3.4675    8.0372 H       1  LIG1        0.0000
     39 H          -0.4453    3.5939    7.4360 H       1  LIG1        0.0000
     40 H           0.2431    2.1236    7.6123 H       1  LIG1        0.0000
     41 H          -1.3951    2.1154    6.3677 H       1  LIG1        0.0000
     42 H          -2.7853    1.2537    4.6224 H       1  LIG1        0.0000
     43 H          -2.0567    1.3233    2.3465 H       1  LIG1        0.0000
     44 H           0.8406    3.0639    1.1962 H       1  LIG1        0.0000
     45 H          -0.5521    2.3554    0.7218 H       1  LIG1        0.0000
     46 H           2.8099    2.7730    1.9493 H       1  LIG1        0.0000
     47 H           3.5374    2.6331    0.4941 H       1  LIG1        0.0000
     48 H           5.2884    1.9668    1.8252 H       1  LIG1        0.0000
     49 H           4.2941    1.3386    2.9581 H       1  LIG1        0.0000
     50 H           6.4062   -0.6004    1.5498 H       1  LIG1        0.0000
     51 H           6.0252   -2.6509    0.3471 H       1  LIG1        0.0000
     52 H           2.9039   -3.5762   -1.2040 H       1  LIG1        0.0000
     53 H           5.0874   -4.5280   -3.0885 H       1  LIG1        0.0000
     54 H           8.7975   -5.2262    0.3654 H       1  LIG1        0.0000
     55 H          10.2841   -6.6535    1.5796 H       1  LIG1        0.0000
     56 H           9.6291   -8.8804    2.1515 H       1  LIG1        0.0000
     57 H           5.9712   -8.2694    0.2827 H       1  LIG1        0.0000
     58 H           4.5459   -4.1533    1.6914 H       1  LIG1        0.0000
     59 H           2.1232   -1.4609   -0.3817 H       1  LIG1        0.0000
     60 H           1.4859    3.1251    3.5504 H       1  LIG1        0.0000
@<TRIPOS>UNITY_ATOM_ATTR
22 1
charge -1
30 1
charge -1
@<TRIPOS>BOND
     1     1     2    1
     2     2     3    1
     3     3     4   ar
     4     4     5   ar
     5     5     6   ar
     6     6     7   ar
     7     7     8    1
     8     8     9    1
     9     9    10    2
    10     9    11   am
    11    11    12    1
    12    12    13    1
    13    13    14    1
    14    14    15   ar
    15    15    16   ar
    16    16    17   ar
    17    17    18    1
    18    18    19    1
    19    19    20    1
    20    20    21    2
    21    21    22    1
    22    21    23    1
    23    23    24    1
    24    24    25   ar
    25    25    26   ar
    26    26    27   ar
    27    27    28   ar
    28    28    29    1
    29    29    30    1
    30    29    31    2
    31    28    32   ar
    32    32    24   ar
    33    23    33    1
    34    33    19    2
    35    33    34    1
    36    17    35   ar
    37    35    36   ar
    38    36    14   ar
    39    36    11    1
    40     7    37   ar
    41    37     3   ar
    42     1    38    1
    43     1    39    1
    44     1    40    1
    45     4    41    1
    46     5    42    1
    47     6    43    1
    48     8    44    1
    49     8    45    1
    50    12    46    1
    51    12    47    1
    52    13    48    1
    53    13    49    1
    54    15    50    1
    55    16    51    1
    56    18    52    1
    57    20    53    1
    58    25    54    1
    59    26    55    1
    60    27    56    1
    61    32    57    1
    62    34    58    1
    63    35    59    1
    64    37    60    1
