@<TRIPOS>MOLECULE
*****
 60 64 0 0 0
SMALL
USER_CHARGES

@<TRIPOS>ATOM
      1 C1         -3.1635    2.5401   -2.2561 C.3     1  LIG1        0.0000
      2 O2         -3.9561    2.1076   -1.1601 O.2     1  LIG1        0.0000
      3 C3         -3.2941    1.9364    0.0040 C.3     1  LIG1        0.0000
      4 C4         -3.9894    1.5137    1.1324 C.3     1  LIG1        0.0000
      5 C5         -3.2971    1.3410    2.3262 C.3     1  LIG1        0.0000
      6 C6         -1.9296    1.5843    2.3985 C.3     1  LIG1        0.0000
      7 C7         -1.2544    2.0061    1.2579 C.3     1  LIG1        0.0000
      8 C8          0.2400    2.2751    1.3268 C.3     1  LIG1        0.0000
      9 C9          1.0000    1.0000    1.0000 C.2     1  LIG1        0.0000
     10 O10         0.4000   -0.0067    0.7420 O.2     1  LIG1        0.0000
     11 N11         2.4009    1.0000    1.0000 N.am    1  LIG1        0.0000
     12 C12         3.2492   -0.1549    0.7315 C.3     1  LIG1        0.0000
     13 C13         4.4486    0.1428    1.6094 C.3     1  LIG1        0.0000
     14 C14         4.4915    1.6545    1.6222 C.3     1  LIG1        0.0000
     15 C15         5.5289    2.5295    1.9249 C.3     1  LIG1        0.0000
     16 C16         5.2877    3.8971    1.9024 C.3     1  LIG1        0.0000
     17 C17         4.0170    4.3569    1.5729 C.3     1  LIG1        0.0000
     18 N18         3.7669    5.7336    1.5667 N.pl3   1  LIG1        0.0000
     19 C19         4.7912    6.6318    1.8832 C.2     1  LIG1        0.0000
     20 C20         5.2984    7.6377    1.0332 C.2     1  LIG1        0.0000
     21 C21         6.2790    8.2632    1.7391 C.2     1  LIG1        0.0000
     22 O22         7.0268    9.2939    1.2912 O.2     1  LIG1       -1.0000
     23 N23         6.3847    7.6871    2.9673 N.pl3   1  LIG1        0.0000
     24 C24         7.2841    8.0647    3.9715 C.3     1  LIG1        0.0000
     25 C25         6.9083    9.0286    4.9016 C.3     1  LIG1        0.0000
     26 C26         7.8102    9.3959    5.8946 C.3     1  LIG1        0.0000
     27 C27         9.0706    8.8121    5.9640 C.3     1  LIG1        0.0000
     28 C28         9.4253    7.8502    5.0237 C.3     1  LIG1        0.0000
     29 C29        10.7373    7.2363    5.0876 C.3     1  LIG1        0.0000
     30 O30        11.5416    7.5722    5.9836 O.2     1  LIG1        0.0000
     31 O31        11.0537    6.3989    4.2735 O.2     1  LIG1       -1.0000
     32 C32         8.5394    7.4681    4.0219 C.3     1  LIG1        0.0000
     33 C33         5.4733    6.6824    3.0568 C.2     1  LIG1        0.0000
     34 O34         5.2797    5.8786    4.1234 O.2     1  LIG1        0.0000
     35 C35         3.0076    3.4548    1.2603 C.3     1  LIG1        0.0000
     36 C36         3.2309    2.0861    1.2784 C.3     1  LIG1        0.0000
     37 C37        -1.9268    2.1857    0.0537 C.3     1  LIG1        0.0000
     38 H          -3.7406    2.6372   -3.0670 H       1  LIG1        0.0000
     39 H          -2.7450    3.4216   -2.0374 H       1  LIG1        0.0000
     40 H          -2.4469    1.8663   -2.4357 H       1  LIG1        0.0000
     41 H          -4.9725    1.3366    1.0859 H       1  LIG1        0.0000
     42 H          -3.7886    1.0382    3.1427 H       1  LIG1        0.0000
     43 H          -1.4378    1.4574    3.2600 H       1  LIG1        0.0000
     44 H           0.4816    2.5804    2.2480 H       1  LIG1        0.0000
     45 H           0.4816    2.9858    0.6661 H       1  LIG1        0.0000
     46 H           3.5057   -0.2036   -0.2338 H       1  LIG1        0.0000
     47 H           2.8017   -1.0077    1.0008 H       1  LIG1        0.0000
     48 H           4.3185   -0.2211    2.5317 H       1  LIG1        0.0000
     49 H           5.2856   -0.2374    1.2160 H       1  LIG1        0.0000
     50 H           6.4365    2.1788    2.1558 H       1  LIG1        0.0000
     51 H           6.0189    4.5435    2.1205 H       1  LIG1        0.0000
     52 H           2.8559    6.0753    1.3360 H       1  LIG1        0.0000
     53 H           4.9985    7.8477    0.1027 H       1  LIG1        0.0000
     54 H           6.0031    9.4511    4.8568 H       1  LIG1        0.0000
     55 H           7.5491   10.0885    6.5670 H       1  LIG1        0.0000
     56 H           9.7139    9.0804    6.6810 H       1  LIG1        0.0000
     57 H           8.8007    6.7759    3.3491 H       1  LIG1        0.0000
     58 H           4.5804    5.1645    4.0910 H       1  LIG1        0.0000
     59 H           2.1010    3.7997    1.0171 H       1  LIG1        0.0000
     60 H          -1.4354    2.4891   -0.7627 H       1  LIG1        0.0000
@<TRIPOS>UNITY_ATOM_ATTR
22 1
charge -1
30 1
charge -1
@<TRIPOS>BOND
     1     1     2    1
     2     2     3    1
     3     3     4   ar
     4     4     5   ar
     5     5     6   ar
     6     6     7   ar
     7     7     8    1
     8     8     9    1
     9     9    10    2
    10     9    11   am
    11    11    12    1
    12    12    13    1
    13    13    14    1
    14    14    15   ar
    15    15    16   ar
    16    16    17   ar
    17    17    18    1
    18    18    19    1
    19    19    20    1
    20    20    21    2
    21    21    22    1
    22    21    23    1
    23    23    24    1
    24    24    25   ar
    25    25    26   ar
    26    26    27   ar
    27    27    28   ar
    28    28    29    1
    29    29    30    1
    30    29    31    2
    31    28    32   ar
    32    32    24   ar
    33    23    33    1
    34    33    19    2
    35    33    34    1
    36    17    35   ar
    37    35    36   ar
    38    36    14   ar
    39    36    11    1
    40     7    37   ar
    41    37     3   ar
    42     1    38    1
    43     1    39    1
    44     1    40    1
    45     4    41    1
    46     5    42    1
    47     6    43    1
    48     8    44    1
    49     8    45    1
    50    12    46    1
    51    12    47    1
    52    13    48    1
    53    13    49    1
    54    15    50    1
    55    16    51    1
    56    18    52    1
    57    20    53    1
    58    25    54    1
    59    26    55    1
    60    27    56    1
    61    32    57    1
    62    34    58    1
    63    35    59    1
    64    37    60    1
