@<TRIPOS>MOLECULE
*****
 60 64 0 0 0
SMALL
USER_CHARGES

@<TRIPOS>ATOM
      1 C1         -3.4389    3.5494   -3.3897 C.3     1  LIG1        0.0000
      2 O2         -3.0955    2.8827   -2.1838 O.2     1  LIG1        0.0000
      3 C3         -1.8898    3.2011   -1.6667 C.3     1  LIG1        0.0000
      4 C4         -1.0862    4.1289   -2.3215 C.3     1  LIG1        0.0000
      5 C5          0.1541    4.4488   -1.7795 C.3     1  LIG1        0.0000
      6 C6          0.5911    3.8551   -0.6002 C.3     1  LIG1        0.0000
      7 C7         -0.2288    2.9301    0.0378 C.3     1  LIG1        0.0000
      8 C8          0.2400    2.2751    1.3268 C.3     1  LIG1        0.0000
      9 C9          1.0000    1.0000    1.0000 C.2     1  LIG1        0.0000
     10 O10         0.4000   -0.0067    0.7420 O.2     1  LIG1        0.0000
     11 N11         2.4009    1.0000    1.0000 N.am    1  LIG1        0.0000
     12 C12         3.2492    2.1549    1.2685 C.3     1  LIG1        0.0000
     13 C13         4.4486    1.8572    0.3906 C.3     1  LIG1        0.0000
     14 C14         4.4915    0.3455    0.3778 C.3     1  LIG1        0.0000
     15 C15         5.5289   -0.5295    0.0751 C.3     1  LIG1        0.0000
     16 C16         5.2877   -1.8971    0.0976 C.3     1  LIG1        0.0000
     17 C17         4.0170   -2.3569    0.4271 C.3     1  LIG1        0.0000
     18 N18         3.7669   -3.7336    0.4333 N.pl3   1  LIG1        0.0000
     19 C19         4.7912   -4.6318    0.1168 C.2     1  LIG1        0.0000
     20 C20         4.7742   -5.5622   -0.9441 C.2     1  LIG1        0.0000
     21 C21         5.9596   -6.2265   -0.8769 C.2     1  LIG1        0.0000
     22 O22         6.3520   -7.2094   -1.7148 O.2     1  LIG1       -1.0000
     23 N23         6.6866   -5.7422    0.1663 N.pl3   1  LIG1        0.0000
     24 C24         7.9611   -6.1798    0.5462 C.3     1  LIG1        0.0000
     25 C25         9.0863   -5.5683    0.0027 C.3     1  LIG1        0.0000
     26 C26        10.3472   -6.0116    0.3873 C.3     1  LIG1        0.0000
     27 C27        10.4893   -7.0496    1.3020 C.3     1  LIG1        0.0000
     28 C28         9.3506   -7.6466    1.8329 C.3     1  LIG1        0.0000
     29 C29         9.4887   -8.7299    2.7867 C.3     1  LIG1        0.0000
     30 O30        10.6259   -9.1219    3.1270 O.2     1  LIG1        0.0000
     31 O31         8.5032   -9.2546    3.2532 O.2     1  LIG1       -1.0000
     32 C32         8.0799   -7.2197    1.4621 C.3     1  LIG1        0.0000
     33 C33         5.9692   -4.7642    0.7801 C.2     1  LIG1        0.0000
     34 O34         6.3590   -4.0503    1.8570 O.2     1  LIG1        0.0000
     35 C35         3.0076   -1.4548    0.7397 C.3     1  LIG1        0.0000
     36 C36         3.2309   -0.0861    0.7216 C.3     1  LIG1        0.0000
     37 C37        -1.4727    2.5949   -0.4866 C.3     1  LIG1        0.0000
     38 H          -4.3437    3.2484   -3.6910 H       1  LIG1        0.0000
     39 H          -3.4512    4.5369   -3.2327 H       1  LIG1        0.0000
     40 H          -2.7635    3.3323   -4.0945 H       1  LIG1        0.0000
     41 H          -1.3958    4.5595   -3.1693 H       1  LIG1        0.0000
     42 H           0.7389    5.1141   -2.2436 H       1  LIG1        0.0000
     43 H           1.4837    4.0902   -0.2157 H       1  LIG1        0.0000
     44 H          -0.5521    2.0545    1.8959 H       1  LIG1        0.0000
     45 H           0.8406    2.9038    1.8209 H       1  LIG1        0.0000
     46 H           3.5057    2.2036    2.2338 H       1  LIG1        0.0000
     47 H           2.8017    3.0077    0.9992 H       1  LIG1        0.0000
     48 H           4.3185    2.2211   -0.5317 H       1  LIG1        0.0000
     49 H           5.2856    2.2374    0.7840 H       1  LIG1        0.0000
     50 H           6.4365   -0.1788   -0.1558 H       1  LIG1        0.0000
     51 H           6.0189   -2.5435   -0.1205 H       1  LIG1        0.0000
     52 H           2.8559   -4.0753    0.6640 H       1  LIG1        0.0000
     53 H           4.0410   -5.7041   -1.6092 H       1  LIG1        0.0000
     54 H           8.9899   -4.8210   -0.6547 H       1  LIG1        0.0000
     55 H          11.1617   -5.5785    0.0014 H       1  LIG1        0.0000
     56 H          11.3990   -7.3630    1.5746 H       1  LIG1        0.0000
     57 H           7.2653   -7.6531    1.8476 H       1  LIG1        0.0000
     58 H           5.7561   -3.3486    2.2367 H       1  LIG1        0.0000
     59 H           2.1010   -1.7997    0.9829 H       1  LIG1        0.0000
     60 H          -2.0573    1.9292   -0.0228 H       1  LIG1        0.0000
@<TRIPOS>UNITY_ATOM_ATTR
22 1
charge -1
30 1
charge -1
@<TRIPOS>BOND
     1     1     2    1
     2     2     3    1
     3     3     4   ar
     4     4     5   ar
     5     5     6   ar
     6     6     7   ar
     7     7     8    1
     8     8     9    1
     9     9    10    2
    10     9    11   am
    11    11    12    1
    12    12    13    1
    13    13    14    1
    14    14    15   ar
    15    15    16   ar
    16    16    17   ar
    17    17    18    1
    18    18    19    1
    19    19    20    1
    20    20    21    2
    21    21    22    1
    22    21    23    1
    23    23    24    1
    24    24    25   ar
    25    25    26   ar
    26    26    27   ar
    27    27    28   ar
    28    28    29    1
    29    29    30    1
    30    29    31    2
    31    28    32   ar
    32    32    24   ar
    33    23    33    1
    34    33    19    2
    35    33    34    1
    36    17    35   ar
    37    35    36   ar
    38    36    14   ar
    39    36    11    1
    40     7    37   ar
    41    37     3   ar
    42     1    38    1
    43     1    39    1
    44     1    40    1
    45     4    41    1
    46     5    42    1
    47     6    43    1
    48     8    44    1
    49     8    45    1
    50    12    46    1
    51    12    47    1
    52    13    48    1
    53    13    49    1
    54    15    50    1
    55    16    51    1
    56    18    52    1
    57    20    53    1
    58    25    54    1
    59    26    55    1
    60    27    56    1
    61    32    57    1
    62    34    58    1
    63    35    59    1
    64    37    60    1
