@<TRIPOS>MOLECULE

  17   18
SMALL
USER_CHARGES
@<TRIPOS>ATOM
   1 F1           1.7679     0.2321     0.2321 F            1    LIG   0.0000
   2 C2           1.0000     1.0000     1.0000 C.3          1    LIG   0.0000
   3 F3           0.2321     1.7679     0.2321 F            1    LIG   0.0000
   4 F4           0.2321     0.2321     1.7679 F            1    LIG   0.0000
   5 C5           1.8789     1.8789     1.8789 C.2          1    LIG   0.0000
   6 C6           3.2573     1.5559     1.9856 C.2          1    LIG   0.0000
   7 C7           4.0568     2.3449     2.7721 C.2          1    LIG   0.0000
   8 C8           3.5167     3.4609     3.4668 C.2          1    LIG   0.0000
   9 N9           4.0608     4.3517     4.2615 N.2          1    LIG   0.0000
  10 N10          3.1553     5.2074     4.6760 N.2          1    LIG   0.0000
  11 C11          2.0105     4.8586     4.1348 C.2          1    LIG   0.0000
  12 S12          0.4946     5.6806     4.3704 S.2          1    LIG  -1.0000
  13 N13          2.1998     3.7531     3.3588 N.pl3        1    LIG   0.0000
  14 C14          1.3982     2.9651     2.5693 C.2          1    LIG   0.0000
  15 H            3.6369     0.7699     1.4977 H            1    LIG   0.0000
  16 H            5.0303     2.1328     2.8579 H            1    LIG   0.0000
  17 H            0.4269     3.1909     2.4940 H            1    LIG   0.0000
@<TRIPOS>BOND
   1        1        2 1
   2        2        3 1
   3        2        4 1
   4        2        5 1
   5        5        6 1
   6        6        7 2
   7        7        8 1
   8        8        9 2
   9        9       10 1
  10       10       11 2
  11       11       12 1
  12       11       13 1
  13       13        8 1
  14       13       14 1
  15       14        5 2
  16        6       15 1
  17        7       16 1
  18       14       17 1

