@<TRIPOS>MOLECULE

  29   31
SMALL
USER_CHARGES
@<TRIPOS>ATOM
   1 F1           1.6970    -0.0565     0.5916 F            1    LIG   0.0000
   2 C2           1.0000     1.0000     1.0000 C.3          1    LIG   0.0000
   3 F3           0.5916     1.6970    -0.0565 F            1    LIG   0.0000
   4 N4           1.8492     1.8492     1.8492 N.pl3        1    LIG   0.0000
   5 C5           2.1635     3.1497     1.5790 C.2          1    LIG   0.0000
   6 C6           2.9672     3.5973     2.5881 C.2          1    LIG   0.0000
   7 C7           3.1503     2.5366     3.5076 C.ar         1    LIG   0.0000
   8 C8           3.8467     2.3919     4.7035 C.ar         1    LIG   0.0000
   9 C9           3.8355     1.1891     5.4034 C.ar         1    LIG   0.0000
  10 C10          3.1140     0.1139     4.8948 C.ar         1    LIG   0.0000
  11 C11          3.0701    -1.1605     5.5856 C.ar         1    LIG   0.0000
  12 C12          1.9446    -1.9693     5.4671 C.ar         1    LIG   0.0000
  13 C13          1.9108    -3.1896     6.1337 C.ar         1    LIG   0.0000
  14 C14          2.9953    -3.5901     6.9084 C.ar         1    LIG   0.0000
  15 C15          4.1169    -2.7751     7.0209 C.ar         1    LIG   0.0000
  16 C16          4.1586    -1.5526     6.3580 C.ar         1    LIG   0.0000
  17 C17          2.4179     0.2550     3.7008 C.ar         1    LIG   0.0000
  18 C18          2.4439     1.4657     3.0175 C.ar         1    LIG   0.0000
  19 H            0.2056     0.6929     1.5241 H            1    LIG   0.0000
  20 H            1.8604     3.6784     0.7862 H            1    LIG   0.0000
  21 H            3.3583     4.5145     2.6643 H            1    LIG   0.0000
  22 H            4.3647     3.1663     5.0668 H            1    LIG   0.0000
  23 H            4.3401     1.0987     6.2619 H            1    LIG   0.0000
  24 H            1.1683    -1.6765     4.9089 H            1    LIG   0.0000
  25 H            1.1070    -3.7793     6.0562 H            1    LIG   0.0000
  26 H            2.9681    -4.4680     7.3864 H            1    LIG   0.0000
  27 H            4.8936    -3.0679     7.5786 H            1    LIG   0.0000
  28 H            4.9620    -0.9623     6.4359 H            1    LIG   0.0000
  29 H            1.8974    -0.5153     3.3323 H            1    LIG   0.0000
@<TRIPOS>BOND
   1        1        2 1
   2        2        3 1
   3        2        4 1
   4        4        5 1
   5        5        6 2
   6        6        7 1
   7        7        8 ar
   8        8        9 ar
   9        9       10 ar
  10       10       11 1
  11       11       12 ar
  12       12       13 ar
  13       13       14 ar
  14       14       15 ar
  15       15       16 ar
  16       16       11 ar
  17       10       17 ar
  18       17       18 ar
  19       18        7 ar
  20       18        4 1
  21        2       19 1
  22        5       20 1
  23        6       21 1
  24        8       22 1
  25        9       23 1
  26       12       24 1
  27       13       25 1
  28       14       26 1
  29       15       27 1
  30       16       28 1
  31       17       29 1

@<TRIPOS>MOLECULE

  29   31
SMALL
USER_CHARGES
@<TRIPOS>ATOM
   1 F1           1.6970    -0.0565     0.5916 F            1    LIG   0.0000
   2 C2           1.0000     1.0000     1.0000 C.3          1    LIG   0.0000
   3 F3           0.5916     1.6970    -0.0565 F            1    LIG   0.0000
   4 N4           1.8492     1.8492     1.8492 N.pl3        1    LIG   0.0000
   5 C5           2.1635     3.1497     1.5790 C.2          1    LIG   0.0000
   6 C6           2.9672     3.5973     2.5881 C.2          1    LIG   0.0000
   7 C7           3.1503     2.5366     3.5076 C.ar         1    LIG   0.0000
   8 C8           3.8467     2.3919     4.7035 C.ar         1    LIG   0.0000
   9 C9           3.8355     1.1891     5.4034 C.ar         1    LIG   0.0000
  10 C10          3.1140     0.1139     4.8948 C.ar         1    LIG   0.0000
  11 C11          3.0701    -1.1605     5.5856 C.ar         1    LIG   0.0000
  12 C12          3.7614    -1.3189     6.7822 C.ar         1    LIG   0.0000
  13 C13          3.7145    -2.5448     7.4376 C.ar         1    LIG   0.0000
  14 C14          2.9815    -3.5963     6.8959 C.ar         1    LIG   0.0000
  15 C15          2.2930    -3.4290     5.6989 C.ar         1    LIG   0.0000
  16 C16          2.3352    -2.2062     5.0365 C.ar         1    LIG   0.0000
  17 C17          2.4179     0.2550     3.7008 C.ar         1    LIG   0.0000
  18 C18          2.4439     1.4657     3.0175 C.ar         1    LIG   0.0000
  19 H            0.2056     0.6929     1.5241 H            1    LIG   0.0000
  20 H            1.8604     3.6784     0.7862 H            1    LIG   0.0000
  21 H            3.3583     4.5145     2.6643 H            1    LIG   0.0000
  22 H            4.3647     3.1663     5.0668 H            1    LIG   0.0000
  23 H            4.3401     1.0987     6.2619 H            1    LIG   0.0000
  24 H            4.2864    -0.5597     7.1670 H            1    LIG   0.0000
  25 H            4.2076    -2.6705     8.2984 H            1    LIG   0.0000
  26 H            2.9496    -4.4765     7.3695 H            1    LIG   0.0000
  27 H            1.7674    -4.1879     5.3143 H            1    LIG   0.0000
  28 H            1.8428    -2.0805     4.1753 H            1    LIG   0.0000
  29 H            1.8974    -0.5153     3.3323 H            1    LIG   0.0000
@<TRIPOS>BOND
   1        1        2 1
   2        2        3 1
   3        2        4 1
   4        4        5 1
   5        5        6 2
   6        6        7 1
   7        7        8 ar
   8        8        9 ar
   9        9       10 ar
  10       10       11 1
  11       11       12 ar
  12       12       13 ar
  13       13       14 ar
  14       14       15 ar
  15       15       16 ar
  16       16       11 ar
  17       10       17 ar
  18       17       18 ar
  19       18        7 ar
  20       18        4 1
  21        2       19 1
  22        5       20 1
  23        6       21 1
  24        8       22 1
  25        9       23 1
  26       12       24 1
  27       13       25 1
  28       14       26 1
  29       15       27 1
  30       16       28 1
  31       17       29 1

@<TRIPOS>MOLECULE

  29   31
SMALL
USER_CHARGES
@<TRIPOS>ATOM
   1 F1           1.6970    -0.0565     0.5916 F            1    LIG   0.0000
   2 C2           1.0000     1.0000     1.0000 C.3          1    LIG   0.0000
   3 F3           0.5916     1.6970    -0.0565 F            1    LIG   0.0000
   4 N4           1.8492     1.8492     1.8492 N.pl3        1    LIG   0.0000
   5 C5           2.1635     3.1497     1.5790 C.2          1    LIG   0.0000
   6 C6           2.9672     3.5973     2.5881 C.2          1    LIG   0.0000
   7 C7           3.1503     2.5366     3.5076 C.ar         1    LIG   0.0000
   8 C8           3.8467     2.3919     4.7035 C.ar         1    LIG   0.0000
   9 C9           3.8355     1.1891     5.4034 C.ar         1    LIG   0.0000
  10 C10          3.1140     0.1139     4.8948 C.ar         1    LIG   0.0000
  11 C11          3.0701    -1.1605     5.5856 C.ar         1    LIG   0.0000
  12 C12          2.9207    -2.3347     4.8549 C.ar         1    LIG   0.0000
  13 C13          2.8790    -3.5524     5.5257 C.ar         1    LIG   0.0000
  14 C14          2.9865    -3.5874     6.9126 C.ar         1    LIG   0.0000
  15 C15          3.1359    -2.4083     7.6353 C.ar         1    LIG   0.0000
  16 C16          3.1780    -1.1859     6.9722 C.ar         1    LIG   0.0000
  17 C17          2.4179     0.2550     3.7008 C.ar         1    LIG   0.0000
  18 C18          2.4439     1.4657     3.0175 C.ar         1    LIG   0.0000
  19 H            0.2056     0.6929     1.5241 H            1    LIG   0.0000
  20 H            1.8604     3.6784     0.7862 H            1    LIG   0.0000
  21 H            3.3583     4.5145     2.6643 H            1    LIG   0.0000
  22 H            4.3647     3.1663     5.0668 H            1    LIG   0.0000
  23 H            4.3401     1.0987     6.2619 H            1    LIG   0.0000
  24 H            2.8442    -2.3036     3.8583 H            1    LIG   0.0000
  25 H            2.7716    -4.4031     5.0110 H            1    LIG   0.0000
  26 H            2.9561    -4.4645     7.3921 H            1    LIG   0.0000
  27 H            3.2132    -2.4392     8.6319 H            1    LIG   0.0000
  28 H            3.2845    -0.3351     7.4867 H            1    LIG   0.0000
  29 H            1.8974    -0.5153     3.3323 H            1    LIG   0.0000
@<TRIPOS>BOND
   1        1        2 1
   2        2        3 1
   3        2        4 1
   4        4        5 1
   5        5        6 2
   6        6        7 1
   7        7        8 ar
   8        8        9 ar
   9        9       10 ar
  10       10       11 1
  11       11       12 ar
  12       12       13 ar
  13       13       14 ar
  14       14       15 ar
  15       15       16 ar
  16       16       11 ar
  17       10       17 ar
  18       17       18 ar
  19       18        7 ar
  20       18        4 1
  21        2       19 1
  22        5       20 1
  23        6       21 1
  24        8       22 1
  25        9       23 1
  26       12       24 1
  27       13       25 1
  28       14       26 1
  29       15       27 1
  30       16       28 1
  31       17       29 1

@<TRIPOS>MOLECULE

  29   31
SMALL
USER_CHARGES
@<TRIPOS>ATOM
   1 F1           1.6970    -0.0565     0.5916 F            1    LIG   0.0000
   2 C2           1.0000     1.0000     1.0000 C.3          1    LIG   0.0000
   3 F3           0.5916     1.6970    -0.0565 F            1    LIG   0.0000
   4 N4           1.8492     1.8492     1.8492 N.pl3        1    LIG   0.0000
   5 C5           1.5790     2.1635     3.1497 C.2          1    LIG   0.0000
   6 C6           2.5881     2.9672     3.5973 C.2          1    LIG   0.0000
   7 C7           3.5076     3.1503     2.5366 C.ar         1    LIG   0.0000
   8 C8           4.7035     3.8467     2.3919 C.ar         1    LIG   0.0000
   9 C9           5.4034     3.8355     1.1891 C.ar         1    LIG   0.0000
  10 C10          4.8948     3.1140     0.1139 C.ar         1    LIG   0.0000
  11 C11          5.5856     3.0701    -1.1605 C.ar         1    LIG   0.0000
  12 C12          5.4671     1.9446    -1.9693 C.ar         1    LIG   0.0000
  13 C13          6.1337     1.9108    -3.1896 C.ar         1    LIG   0.0000
  14 C14          6.9084     2.9953    -3.5901 C.ar         1    LIG   0.0000
  15 C15          7.0209     4.1169    -2.7751 C.ar         1    LIG   0.0000
  16 C16          6.3580     4.1586    -1.5526 C.ar         1    LIG   0.0000
  17 C17          3.7008     2.4179     0.2550 C.ar         1    LIG   0.0000
  18 C18          3.0175     2.4439     1.4657 C.ar         1    LIG   0.0000
  19 H            0.2056     0.6929     1.5241 H            1    LIG   0.0000
  20 H            0.7862     1.8604     3.6784 H            1    LIG   0.0000
  21 H            2.6643     3.3583     4.5145 H            1    LIG   0.0000
  22 H            5.0668     4.3647     3.1663 H            1    LIG   0.0000
  23 H            6.2619     4.3401     1.0987 H            1    LIG   0.0000
  24 H            4.9089     1.1683    -1.6765 H            1    LIG   0.0000
  25 H            6.0562     1.1070    -3.7793 H            1    LIG   0.0000
  26 H            7.3864     2.9681    -4.4680 H            1    LIG   0.0000
  27 H            7.5786     4.8936    -3.0679 H            1    LIG   0.0000
  28 H            6.4359     4.9620    -0.9623 H            1    LIG   0.0000
  29 H            3.3323     1.8974    -0.5153 H            1    LIG   0.0000
@<TRIPOS>BOND
   1        1        2 1
   2        2        3 1
   3        2        4 1
   4        4        5 1
   5        5        6 2
   6        6        7 1
   7        7        8 ar
   8        8        9 ar
   9        9       10 ar
  10       10       11 1
  11       11       12 ar
  12       12       13 ar
  13       13       14 ar
  14       14       15 ar
  15       15       16 ar
  16       16       11 ar
  17       10       17 ar
  18       17       18 ar
  19       18        7 ar
  20       18        4 1
  21        2       19 1
  22        5       20 1
  23        6       21 1
  24        8       22 1
  25        9       23 1
  26       12       24 1
  27       13       25 1
  28       14       26 1
  29       15       27 1
  30       16       28 1
  31       17       29 1

@<TRIPOS>MOLECULE

  29   31
SMALL
USER_CHARGES
@<TRIPOS>ATOM
   1 F1           1.6970    -0.0565     0.5916 F            1    LIG   0.0000
   2 C2           1.0000     1.0000     1.0000 C.3          1    LIG   0.0000
   3 F3           0.5916     1.6970    -0.0565 F            1    LIG   0.0000
   4 N4           1.8492     1.8492     1.8492 N.pl3        1    LIG   0.0000
   5 C5           1.5790     2.1635     3.1497 C.2          1    LIG   0.0000
   6 C6           2.5881     2.9672     3.5973 C.2          1    LIG   0.0000
   7 C7           3.5076     3.1503     2.5366 C.ar         1    LIG   0.0000
   8 C8           4.7035     3.8467     2.3919 C.ar         1    LIG   0.0000
   9 C9           5.4034     3.8355     1.1891 C.ar         1    LIG   0.0000
  10 C10          4.8948     3.1140     0.1139 C.ar         1    LIG   0.0000
  11 C11          5.5856     3.0701    -1.1605 C.ar         1    LIG   0.0000
  12 C12          6.7822     3.7614    -1.3189 C.ar         1    LIG   0.0000
  13 C13          7.4376     3.7145    -2.5448 C.ar         1    LIG   0.0000
  14 C14          6.8959     2.9815    -3.5963 C.ar         1    LIG   0.0000
  15 C15          5.6989     2.2930    -3.4290 C.ar         1    LIG   0.0000
  16 C16          5.0365     2.3352    -2.2062 C.ar         1    LIG   0.0000
  17 C17          3.7008     2.4179     0.2550 C.ar         1    LIG   0.0000
  18 C18          3.0175     2.4439     1.4657 C.ar         1    LIG   0.0000
  19 H            0.2056     0.6929     1.5241 H            1    LIG   0.0000
  20 H            0.7862     1.8604     3.6784 H            1    LIG   0.0000
  21 H            2.6643     3.3583     4.5145 H            1    LIG   0.0000
  22 H            5.0668     4.3647     3.1663 H            1    LIG   0.0000
  23 H            6.2619     4.3401     1.0987 H            1    LIG   0.0000
  24 H            7.1670     4.2864    -0.5597 H            1    LIG   0.0000
  25 H            8.2984     4.2076    -2.6705 H            1    LIG   0.0000
  26 H            7.3695     2.9496    -4.4765 H            1    LIG   0.0000
  27 H            5.3143     1.7674    -4.1879 H            1    LIG   0.0000
  28 H            4.1753     1.8428    -2.0805 H            1    LIG   0.0000
  29 H            3.3323     1.8974    -0.5153 H            1    LIG   0.0000
@<TRIPOS>BOND
   1        1        2 1
   2        2        3 1
   3        2        4 1
   4        4        5 1
   5        5        6 2
   6        6        7 1
   7        7        8 ar
   8        8        9 ar
   9        9       10 ar
  10       10       11 1
  11       11       12 ar
  12       12       13 ar
  13       13       14 ar
  14       14       15 ar
  15       15       16 ar
  16       16       11 ar
  17       10       17 ar
  18       17       18 ar
  19       18        7 ar
  20       18        4 1
  21        2       19 1
  22        5       20 1
  23        6       21 1
  24        8       22 1
  25        9       23 1
  26       12       24 1
  27       13       25 1
  28       14       26 1
  29       15       27 1
  30       16       28 1
  31       17       29 1

@<TRIPOS>MOLECULE

  29   31
SMALL
USER_CHARGES
@<TRIPOS>ATOM
   1 F1           1.6970    -0.0565     0.5916 F            1    LIG   0.0000
   2 C2           1.0000     1.0000     1.0000 C.3          1    LIG   0.0000
   3 F3           0.5916     1.6970    -0.0565 F            1    LIG   0.0000
   4 N4           1.8492     1.8492     1.8492 N.pl3        1    LIG   0.0000
   5 C5           1.5790     2.1635     3.1497 C.2          1    LIG   0.0000
   6 C6           2.5881     2.9672     3.5973 C.2          1    LIG   0.0000
   7 C7           3.5076     3.1503     2.5366 C.ar         1    LIG   0.0000
   8 C8           4.7035     3.8467     2.3919 C.ar         1    LIG   0.0000
   9 C9           5.4034     3.8355     1.1891 C.ar         1    LIG   0.0000
  10 C10          4.8948     3.1140     0.1139 C.ar         1    LIG   0.0000
  11 C11          5.5856     3.0701    -1.1605 C.ar         1    LIG   0.0000
  12 C12          4.8549     2.9207    -2.3347 C.ar         1    LIG   0.0000
  13 C13          5.5257     2.8790    -3.5524 C.ar         1    LIG   0.0000
  14 C14          6.9126     2.9865    -3.5874 C.ar         1    LIG   0.0000
  15 C15          7.6353     3.1359    -2.4083 C.ar         1    LIG   0.0000
  16 C16          6.9722     3.1780    -1.1859 C.ar         1    LIG   0.0000
  17 C17          3.7008     2.4179     0.2550 C.ar         1    LIG   0.0000
  18 C18          3.0175     2.4439     1.4657 C.ar         1    LIG   0.0000
  19 H            0.2056     0.6929     1.5241 H            1    LIG   0.0000
  20 H            0.7862     1.8604     3.6784 H            1    LIG   0.0000
  21 H            2.6643     3.3583     4.5145 H            1    LIG   0.0000
  22 H            5.0668     4.3647     3.1663 H            1    LIG   0.0000
  23 H            6.2619     4.3401     1.0987 H            1    LIG   0.0000
  24 H            3.8583     2.8442    -2.3036 H            1    LIG   0.0000
  25 H            5.0110     2.7716    -4.4031 H            1    LIG   0.0000
  26 H            7.3921     2.9561    -4.4645 H            1    LIG   0.0000
  27 H            8.6319     3.2132    -2.4392 H            1    LIG   0.0000
  28 H            7.4867     3.2845    -0.3351 H            1    LIG   0.0000
  29 H            3.3323     1.8974    -0.5153 H            1    LIG   0.0000
@<TRIPOS>BOND
   1        1        2 1
   2        2        3 1
   3        2        4 1
   4        4        5 1
   5        5        6 2
   6        6        7 1
   7        7        8 ar
   8        8        9 ar
   9        9       10 ar
  10       10       11 1
  11       11       12 ar
  12       12       13 ar
  13       13       14 ar
  14       14       15 ar
  15       15       16 ar
  16       16       11 ar
  17       10       17 ar
  18       17       18 ar
  19       18        7 ar
  20       18        4 1
  21        2       19 1
  22        5       20 1
  23        6       21 1
  24        8       22 1
  25        9       23 1
  26       12       24 1
  27       13       25 1
  28       14       26 1
  29       15       27 1
  30       16       28 1
  31       17       29 1

@<TRIPOS>MOLECULE

  29   31
SMALL
USER_CHARGES
@<TRIPOS>ATOM
   1 F1           1.6970    -0.0565     0.5916 F            1    LIG   0.0000
   2 C2           1.0000     1.0000     1.0000 C.3          1    LIG   0.0000
   3 F3           0.5916     1.6970    -0.0565 F            1    LIG   0.0000
   4 N4           1.8492     1.8492     1.8492 N.pl3        1    LIG   0.0000
   5 C5           3.1497     1.5790     2.1635 C.2          1    LIG   0.0000
   6 C6           3.5973     2.5881     2.9672 C.2          1    LIG   0.0000
   7 C7           2.5366     3.5076     3.1503 C.ar         1    LIG   0.0000
   8 C8           2.3919     4.7035     3.8467 C.ar         1    LIG   0.0000
   9 C9           1.1891     5.4034     3.8355 C.ar         1    LIG   0.0000
  10 C10          0.1139     4.8948     3.1140 C.ar         1    LIG   0.0000
  11 C11         -1.1605     5.5856     3.0701 C.ar         1    LIG   0.0000
  12 C12         -1.9693     5.4671     1.9446 C.ar         1    LIG   0.0000
  13 C13         -3.1896     6.1337     1.9108 C.ar         1    LIG   0.0000
  14 C14         -3.5901     6.9084     2.9953 C.ar         1    LIG   0.0000
  15 C15         -2.7751     7.0209     4.1169 C.ar         1    LIG   0.0000
  16 C16         -1.5526     6.3580     4.1586 C.ar         1    LIG   0.0000
  17 C17          0.2550     3.7008     2.4179 C.ar         1    LIG   0.0000
  18 C18          1.4657     3.0175     2.4439 C.ar         1    LIG   0.0000
  19 H            0.2056     0.6929     1.5241 H            1    LIG   0.0000
  20 H            3.6784     0.7862     1.8604 H            1    LIG   0.0000
  21 H            4.5145     2.6643     3.3583 H            1    LIG   0.0000
  22 H            3.1663     5.0668     4.3647 H            1    LIG   0.0000
  23 H            1.0987     6.2619     4.3401 H            1    LIG   0.0000
  24 H           -1.6765     4.9089     1.1683 H            1    LIG   0.0000
  25 H           -3.7793     6.0562     1.1070 H            1    LIG   0.0000
  26 H           -4.4680     7.3864     2.9681 H            1    LIG   0.0000
  27 H           -3.0679     7.5786     4.8936 H            1    LIG   0.0000
  28 H           -0.9623     6.4359     4.9620 H            1    LIG   0.0000
  29 H           -0.5153     3.3323     1.8974 H            1    LIG   0.0000
@<TRIPOS>BOND
   1        1        2 1
   2        2        3 1
   3        2        4 1
   4        4        5 1
   5        5        6 2
   6        6        7 1
   7        7        8 ar
   8        8        9 ar
   9        9       10 ar
  10       10       11 1
  11       11       12 ar
  12       12       13 ar
  13       13       14 ar
  14       14       15 ar
  15       15       16 ar
  16       16       11 ar
  17       10       17 ar
  18       17       18 ar
  19       18        7 ar
  20       18        4 1
  21        2       19 1
  22        5       20 1
  23        6       21 1
  24        8       22 1
  25        9       23 1
  26       12       24 1
  27       13       25 1
  28       14       26 1
  29       15       27 1
  30       16       28 1
  31       17       29 1

@<TRIPOS>MOLECULE

  29   31
SMALL
USER_CHARGES
@<TRIPOS>ATOM
   1 F1           1.6970    -0.0565     0.5916 F            1    LIG   0.0000
   2 C2           1.0000     1.0000     1.0000 C.3          1    LIG   0.0000
   3 F3           0.5916     1.6970    -0.0565 F            1    LIG   0.0000
   4 N4           1.8492     1.8492     1.8492 N.pl3        1    LIG   0.0000
   5 C5           3.1497     1.5790     2.1635 C.2          1    LIG   0.0000
   6 C6           3.5973     2.5881     2.9672 C.2          1    LIG   0.0000
   7 C7           2.5366     3.5076     3.1503 C.ar         1    LIG   0.0000
   8 C8           2.3919     4.7035     3.8467 C.ar         1    LIG   0.0000
   9 C9           1.1891     5.4034     3.8355 C.ar         1    LIG   0.0000
  10 C10          0.1139     4.8948     3.1140 C.ar         1    LIG   0.0000
  11 C11         -1.1605     5.5856     3.0701 C.ar         1    LIG   0.0000
  12 C12         -1.3189     6.7822     3.7614 C.ar         1    LIG   0.0000
  13 C13         -2.5448     7.4376     3.7145 C.ar         1    LIG   0.0000
  14 C14         -3.5963     6.8959     2.9815 C.ar         1    LIG   0.0000
  15 C15         -3.4290     5.6989     2.2930 C.ar         1    LIG   0.0000
  16 C16         -2.2062     5.0365     2.3352 C.ar         1    LIG   0.0000
  17 C17          0.2550     3.7008     2.4179 C.ar         1    LIG   0.0000
  18 C18          1.4657     3.0175     2.4439 C.ar         1    LIG   0.0000
  19 H            0.2056     0.6929     1.5241 H            1    LIG   0.0000
  20 H            3.6784     0.7862     1.8604 H            1    LIG   0.0000
  21 H            4.5145     2.6643     3.3583 H            1    LIG   0.0000
  22 H            3.1663     5.0668     4.3647 H            1    LIG   0.0000
  23 H            1.0987     6.2619     4.3401 H            1    LIG   0.0000
  24 H           -0.5597     7.1670     4.2864 H            1    LIG   0.0000
  25 H           -2.6705     8.2984     4.2076 H            1    LIG   0.0000
  26 H           -4.4765     7.3695     2.9496 H            1    LIG   0.0000
  27 H           -4.1879     5.3143     1.7674 H            1    LIG   0.0000
  28 H           -2.0805     4.1753     1.8428 H            1    LIG   0.0000
  29 H           -0.5153     3.3323     1.8974 H            1    LIG   0.0000
@<TRIPOS>BOND
   1        1        2 1
   2        2        3 1
   3        2        4 1
   4        4        5 1
   5        5        6 2
   6        6        7 1
   7        7        8 ar
   8        8        9 ar
   9        9       10 ar
  10       10       11 1
  11       11       12 ar
  12       12       13 ar
  13       13       14 ar
  14       14       15 ar
  15       15       16 ar
  16       16       11 ar
  17       10       17 ar
  18       17       18 ar
  19       18        7 ar
  20       18        4 1
  21        2       19 1
  22        5       20 1
  23        6       21 1
  24        8       22 1
  25        9       23 1
  26       12       24 1
  27       13       25 1
  28       14       26 1
  29       15       27 1
  30       16       28 1
  31       17       29 1

@<TRIPOS>MOLECULE

  29   31
SMALL
USER_CHARGES
@<TRIPOS>ATOM
   1 F1           1.6970    -0.0565     0.5916 F            1    LIG   0.0000
   2 C2           1.0000     1.0000     1.0000 C.3          1    LIG   0.0000
   3 F3           0.5916     1.6970    -0.0565 F            1    LIG   0.0000
   4 N4           1.8492     1.8492     1.8492 N.pl3        1    LIG   0.0000
   5 C5           3.1497     1.5790     2.1635 C.2          1    LIG   0.0000
   6 C6           3.5973     2.5881     2.9672 C.2          1    LIG   0.0000
   7 C7           2.5366     3.5076     3.1503 C.ar         1    LIG   0.0000
   8 C8           2.3919     4.7035     3.8467 C.ar         1    LIG   0.0000
   9 C9           1.1891     5.4034     3.8355 C.ar         1    LIG   0.0000
  10 C10          0.1139     4.8948     3.1140 C.ar         1    LIG   0.0000
  11 C11         -1.1605     5.5856     3.0701 C.ar         1    LIG   0.0000
  12 C12         -2.3347     4.8549     2.9207 C.ar         1    LIG   0.0000
  13 C13         -3.5524     5.5257     2.8790 C.ar         1    LIG   0.0000
  14 C14         -3.5874     6.9126     2.9865 C.ar         1    LIG   0.0000
  15 C15         -2.4083     7.6353     3.1359 C.ar         1    LIG   0.0000
  16 C16         -1.1859     6.9722     3.1780 C.ar         1    LIG   0.0000
  17 C17          0.2550     3.7008     2.4179 C.ar         1    LIG   0.0000
  18 C18          1.4657     3.0175     2.4439 C.ar         1    LIG   0.0000
  19 H            0.2056     0.6929     1.5241 H            1    LIG   0.0000
  20 H            3.6784     0.7862     1.8604 H            1    LIG   0.0000
  21 H            4.5145     2.6643     3.3583 H            1    LIG   0.0000
  22 H            3.1663     5.0668     4.3647 H            1    LIG   0.0000
  23 H            1.0987     6.2619     4.3401 H            1    LIG   0.0000
  24 H           -2.3036     3.8583     2.8442 H            1    LIG   0.0000
  25 H           -4.4031     5.0110     2.7716 H            1    LIG   0.0000
  26 H           -4.4645     7.3921     2.9561 H            1    LIG   0.0000
  27 H           -2.4392     8.6319     3.2132 H            1    LIG   0.0000
  28 H           -0.3351     7.4867     3.2845 H            1    LIG   0.0000
  29 H           -0.5153     3.3323     1.8974 H            1    LIG   0.0000
@<TRIPOS>BOND
   1        1        2 1
   2        2        3 1
   3        2        4 1
   4        4        5 1
   5        5        6 2
   6        6        7 1
   7        7        8 ar
   8        8        9 ar
   9        9       10 ar
  10       10       11 1
  11       11       12 ar
  12       12       13 ar
  13       13       14 ar
  14       14       15 ar
  15       15       16 ar
  16       16       11 ar
  17       10       17 ar
  18       17       18 ar
  19       18        7 ar
  20       18        4 1
  21        2       19 1
  22        5       20 1
  23        6       21 1
  24        8       22 1
  25        9       23 1
  26       12       24 1
  27       13       25 1
  28       14       26 1
  29       15       27 1
  30       16       28 1
  31       17       29 1

@<TRIPOS>MOLECULE

  29   31
SMALL
USER_CHARGES
@<TRIPOS>ATOM
   1 F1           1.6970    -0.0565     0.5916 F            1    LIG   0.0000
   2 C2           1.0000     1.0000     1.0000 C.3          1    LIG   0.0000
   3 F3           0.5916     1.6970    -0.0565 F            1    LIG   0.0000
   4 N4           1.8492     1.8492     1.8492 N.pl3        1    LIG   0.0000
   5 C5           1.4451     3.0158     2.4313 C.2          1    LIG   0.0000
   6 C6           2.5044     3.5136     3.1345 C.2          1    LIG   0.0000
   7 C7           3.5931     2.6221     2.9794 C.ar         1    LIG   0.0000
   8 C8           4.9029     2.5912     3.4481 C.ar         1    LIG   0.0000
   9 C9           5.7629     1.5486     3.1165 C.ar         1    LIG   0.0000
  10 C10          5.3012     0.5203     2.3011 C.ar         1    LIG   0.0000
  11 C11          6.1573    -0.5888     1.9266 C.ar         1    LIG   0.0000
  12 C12          5.6360    -1.8778     1.8872 C.ar         1    LIG   0.0000
  13 C13          6.4645    -2.9357     1.5277 C.ar         1    LIG   0.0000
  14 C14          7.7989    -2.6989     1.2121 C.ar         1    LIG   0.0000
  15 C15          8.3117    -1.4065     1.2539 C.ar         1    LIG   0.0000
  16 C16          7.4901    -0.3428     1.6131 C.ar         1    LIG   0.0000
  17 C17          3.9942     0.5483     1.8312 C.ar         1    LIG   0.0000
  18 C18          3.1524     1.6006     2.1741 C.ar         1    LIG   0.0000
  19 H            0.2056     0.6929     1.5241 H            1    LIG   0.0000
  20 H            0.5382     3.4305     2.3563 H            1    LIG   0.0000
  21 H            2.5102     4.3604     3.6664 H            1    LIG   0.0000
  22 H            5.2322     3.3318     4.0338 H            1    LIG   0.0000
  23 H            6.7018     1.5386     3.4603 H            1    LIG   0.0000
  24 H            4.6762    -2.0421     2.1148 H            1    LIG   0.0000
  25 H            6.1010    -3.8667     1.4961 H            1    LIG   0.0000
  26 H            8.3921    -3.4615     0.9539 H            1    LIG   0.0000
  27 H            9.2713    -1.2419     1.0257 H            1    LIG   0.0000
  28 H            7.8535     0.5883     1.6456 H            1    LIG   0.0000
  29 H            3.6583    -0.1893     1.2456 H            1    LIG   0.0000
@<TRIPOS>BOND
   1        1        2 1
   2        2        3 1
   3        2        4 1
   4        4        5 1
   5        5        6 2
   6        6        7 1
   7        7        8 ar
   8        8        9 ar
   9        9       10 ar
  10       10       11 1
  11       11       12 ar
  12       12       13 ar
  13       13       14 ar
  14       14       15 ar
  15       15       16 ar
  16       16       11 ar
  17       10       17 ar
  18       17       18 ar
  19       18        7 ar
  20       18        4 1
  21        2       19 1
  22        5       20 1
  23        6       21 1
  24        8       22 1
  25        9       23 1
  26       12       24 1
  27       13       25 1
  28       14       26 1
  29       15       27 1
  30       16       28 1
  31       17       29 1

@<TRIPOS>MOLECULE

  29   31
SMALL
USER_CHARGES
@<TRIPOS>ATOM
   1 F1           1.6970    -0.0565     0.5916 F            1    LIG   0.0000
   2 C2           1.0000     1.0000     1.0000 C.3          1    LIG   0.0000
   3 F3           0.5916     1.6970    -0.0565 F            1    LIG   0.0000
   4 N4           1.8492     1.8492     1.8492 N.pl3        1    LIG   0.0000
   5 C5           1.4451     3.0158     2.4313 C.2          1    LIG   0.0000
   6 C6           2.5044     3.5136     3.1345 C.2          1    LIG   0.0000
   7 C7           3.5931     2.6221     2.9794 C.ar         1    LIG   0.0000
   8 C8           4.9029     2.5912     3.4481 C.ar         1    LIG   0.0000
   9 C9           5.7629     1.5486     3.1165 C.ar         1    LIG   0.0000
  10 C10          5.3012     0.5203     2.3011 C.ar         1    LIG   0.0000
  11 C11          6.1573    -0.5888     1.9266 C.ar         1    LIG   0.0000
  12 C12          7.5182    -0.5336     2.2090 C.ar         1    LIG   0.0000
  13 C13          8.3320    -1.6014     1.8457 C.ar         1    LIG   0.0000
  14 C14          7.7832    -2.7094     1.2073 C.ar         1    LIG   0.0000
  15 C15          6.4210    -2.7563     0.9291 C.ar         1    LIG   0.0000
  16 C16          5.6001    -1.6921     1.2885 C.ar         1    LIG   0.0000
  17 C17          3.9942     0.5483     1.8312 C.ar         1    LIG   0.0000
  18 C18          3.1524     1.6006     2.1741 C.ar         1    LIG   0.0000
  19 H            0.2056     0.6929     1.5241 H            1    LIG   0.0000
  20 H            0.5382     3.4305     2.3563 H            1    LIG   0.0000
  21 H            2.5102     4.3604     3.6664 H            1    LIG   0.0000
  22 H            5.2322     3.3318     4.0338 H            1    LIG   0.0000
  23 H            6.7018     1.5386     3.4603 H            1    LIG   0.0000
  24 H            7.9072     0.2651     2.6682 H            1    LIG   0.0000
  25 H            9.3119    -1.5729     2.0433 H            1    LIG   0.0000
  26 H            8.3708    -3.4757     0.9473 H            1    LIG   0.0000
  27 H            6.0318    -3.5551     0.4705 H            1    LIG   0.0000
  28 H            4.6203    -1.7201     1.0903 H            1    LIG   0.0000
  29 H            3.6583    -0.1893     1.2456 H            1    LIG   0.0000
@<TRIPOS>BOND
   1        1        2 1
   2        2        3 1
   3        2        4 1
   4        4        5 1
   5        5        6 2
   6        6        7 1
   7        7        8 ar
   8        8        9 ar
   9        9       10 ar
  10       10       11 1
  11       11       12 ar
  12       12       13 ar
  13       13       14 ar
  14       14       15 ar
  15       15       16 ar
  16       16       11 ar
  17       10       17 ar
  18       17       18 ar
  19       18        7 ar
  20       18        4 1
  21        2       19 1
  22        5       20 1
  23        6       21 1
  24        8       22 1
  25        9       23 1
  26       12       24 1
  27       13       25 1
  28       14       26 1
  29       15       27 1
  30       16       28 1
  31       17       29 1

@<TRIPOS>MOLECULE

  29   31
SMALL
USER_CHARGES
@<TRIPOS>ATOM
   1 F1           1.6970    -0.0565     0.5916 F            1    LIG   0.0000
   2 C2           1.0000     1.0000     1.0000 C.3          1    LIG   0.0000
   3 F3           0.5916     1.6970    -0.0565 F            1    LIG   0.0000
   4 N4           1.8492     1.8492     1.8492 N.pl3        1    LIG   0.0000
   5 C5           1.4451     3.0158     2.4313 C.2          1    LIG   0.0000
   6 C6           2.5044     3.5136     3.1345 C.2          1    LIG   0.0000
   7 C7           3.5931     2.6221     2.9794 C.ar         1    LIG   0.0000
   8 C8           4.9029     2.5912     3.4481 C.ar         1    LIG   0.0000
   9 C9           5.7629     1.5486     3.1165 C.ar         1    LIG   0.0000
  10 C10          5.3012     0.5203     2.3011 C.ar         1    LIG   0.0000
  11 C11          6.1573    -0.5888     1.9266 C.ar         1    LIG   0.0000
  12 C12          5.8377    -1.3597     0.8138 C.ar         1    LIG   0.0000
  13 C13          6.6640    -2.4220     0.4624 C.ar         1    LIG   0.0000
  14 C14          7.7964    -2.7037     1.2206 C.ar         1    LIG   0.0000
  15 C15          8.1085    -1.9273     2.3318 C.ar         1    LIG   0.0000
  16 C16          7.2869    -0.8634     2.6906 C.ar         1    LIG   0.0000
  17 C17          3.9942     0.5483     1.8312 C.ar         1    LIG   0.0000
  18 C18          3.1524     1.6006     2.1741 C.ar         1    LIG   0.0000
  19 H            0.2056     0.6929     1.5241 H            1    LIG   0.0000
  20 H            0.5382     3.4305     2.3563 H            1    LIG   0.0000
  21 H            2.5102     4.3604     3.6664 H            1    LIG   0.0000
  22 H            5.2322     3.3318     4.0338 H            1    LIG   0.0000
  23 H            6.7018     1.5386     3.4603 H            1    LIG   0.0000
  24 H            5.0229    -1.1526     0.2724 H            1    LIG   0.0000
  25 H            6.4443    -2.9834    -0.3355 H            1    LIG   0.0000
  26 H            8.3886    -3.4681     0.9654 H            1    LIG   0.0000
  27 H            8.9237    -2.1339     2.8729 H            1    LIG   0.0000
  28 H            7.5061    -0.3023     3.4888 H            1    LIG   0.0000
  29 H            3.6583    -0.1893     1.2456 H            1    LIG   0.0000
@<TRIPOS>BOND
   1        1        2 1
   2        2        3 1
   3        2        4 1
   4        4        5 1
   5        5        6 2
   6        6        7 1
   7        7        8 ar
   8        8        9 ar
   9        9       10 ar
  10       10       11 1
  11       11       12 ar
  12       12       13 ar
  13       13       14 ar
  14       14       15 ar
  15       15       16 ar
  16       16       11 ar
  17       10       17 ar
  18       17       18 ar
  19       18        7 ar
  20       18        4 1
  21        2       19 1
  22        5       20 1
  23        6       21 1
  24        8       22 1
  25        9       23 1
  26       12       24 1
  27       13       25 1
  28       14       26 1
  29       15       27 1
  30       16       28 1
  31       17       29 1

