@<TRIPOS>MOLECULE
*****
 29 31 0 0 0
SMALL
USER_CHARGES

@<TRIPOS>ATOM
      1 F1          1.6970   -0.0565    0.5916 F       1  LIG1        0.0000
      2 C2          1.0000    1.0000    1.0000 C.3     1  LIG1        0.0000
      3 F3          0.5916    1.6970   -0.0565 F       1  LIG1        0.0000
      4 N4          1.8492    1.8492    1.8492 N.pl3   1  LIG1        0.0000
      5 C5          1.5790    2.1635    3.1497 C.2     1  LIG1        0.0000
      6 C6          2.5881    2.9672    3.5973 C.2     1  LIG1        0.0000
      7 C7          3.5076    3.1503    2.5366 C.ar    1  LIG1        0.0000
      8 C8          4.7035    3.8467    2.3919 C.ar    1  LIG1        0.0000
      9 C9          5.4034    3.8355    1.1891 C.ar    1  LIG1        0.0000
     10 C10         4.8948    3.1140    0.1139 C.ar    1  LIG1        0.0000
     11 C11         5.5856    3.0701   -1.1605 C.ar    1  LIG1        0.0000
     12 C12         6.7822    3.7614   -1.3189 C.ar    1  LIG1        0.0000
     13 C13         7.4376    3.7145   -2.5448 C.ar    1  LIG1        0.0000
     14 C14         6.8959    2.9815   -3.5963 C.ar    1  LIG1        0.0000
     15 C15         5.6989    2.2930   -3.4290 C.ar    1  LIG1        0.0000
     16 C16         5.0365    2.3352   -2.2062 C.ar    1  LIG1        0.0000
     17 C17         3.7008    2.4179    0.2550 C.ar    1  LIG1        0.0000
     18 C18         3.0175    2.4439    1.4657 C.ar    1  LIG1        0.0000
     19 H           0.2056    0.6929    1.5241 H       1  LIG1        0.0000
     20 H           0.7862    1.8604    3.6784 H       1  LIG1        0.0000
     21 H           2.6643    3.3583    4.5145 H       1  LIG1        0.0000
     22 H           5.0668    4.3647    3.1663 H       1  LIG1        0.0000
     23 H           6.2619    4.3401    1.0987 H       1  LIG1        0.0000
     24 H           7.1670    4.2864   -0.5597 H       1  LIG1        0.0000
     25 H           8.2984    4.2076   -2.6705 H       1  LIG1        0.0000
     26 H           7.3695    2.9496   -4.4765 H       1  LIG1        0.0000
     27 H           5.3143    1.7674   -4.1879 H       1  LIG1        0.0000
     28 H           4.1753    1.8428   -2.0805 H       1  LIG1        0.0000
     29 H           3.3323    1.8974   -0.5153 H       1  LIG1        0.0000
@<TRIPOS>BOND
     1     1     2    1
     2     2     3    1
     3     2     4    1
     4     4     5    1
     5     5     6    2
     6     6     7    1
     7     7     8   ar
     8     8     9   ar
     9     9    10   ar
    10    10    11    1
    11    11    12   ar
    12    12    13   ar
    13    13    14   ar
    14    14    15   ar
    15    15    16   ar
    16    16    11   ar
    17    10    17   ar
    18    17    18   ar
    19    18     7   ar
    20    18     4    1
    21     2    19    1
    22     5    20    1
    23     6    21    1
    24     8    22    1
    25     9    23    1
    26    12    24    1
    27    13    25    1
    28    14    26    1
    29    15    27    1
    30    16    28    1
    31    17    29    1
