@<TRIPOS>MOLECULE
*****
 29 31 0 0 0
SMALL
USER_CHARGES

@<TRIPOS>ATOM
      1 F1          1.6970   -0.0565    0.5916 F       1  LIG1        0.0000
      2 C2          1.0000    1.0000    1.0000 C.3     1  LIG1        0.0000
      3 F3          0.5916    1.6970   -0.0565 F       1  LIG1        0.0000
      4 N4          1.8492    1.8492    1.8492 N.pl3   1  LIG1        0.0000
      5 C5          1.4451    3.0158    2.4313 C.2     1  LIG1        0.0000
      6 C6          2.5044    3.5136    3.1345 C.2     1  LIG1        0.0000
      7 C7          3.5931    2.6221    2.9794 C.ar    1  LIG1        0.0000
      8 C8          4.9029    2.5912    3.4481 C.ar    1  LIG1        0.0000
      9 C9          5.7629    1.5486    3.1165 C.ar    1  LIG1        0.0000
     10 C10         5.3012    0.5203    2.3011 C.ar    1  LIG1        0.0000
     11 C11         6.1573   -0.5888    1.9266 C.ar    1  LIG1        0.0000
     12 C12         5.6360   -1.8778    1.8872 C.ar    1  LIG1        0.0000
     13 C13         6.4645   -2.9357    1.5277 C.ar    1  LIG1        0.0000
     14 C14         7.7989   -2.6989    1.2121 C.ar    1  LIG1        0.0000
     15 C15         8.3117   -1.4065    1.2539 C.ar    1  LIG1        0.0000
     16 C16         7.4901   -0.3428    1.6131 C.ar    1  LIG1        0.0000
     17 C17         3.9942    0.5483    1.8312 C.ar    1  LIG1        0.0000
     18 C18         3.1524    1.6006    2.1741 C.ar    1  LIG1        0.0000
     19 H           0.2056    0.6929    1.5241 H       1  LIG1        0.0000
     20 H           0.5382    3.4305    2.3563 H       1  LIG1        0.0000
     21 H           2.5102    4.3604    3.6664 H       1  LIG1        0.0000
     22 H           5.2322    3.3318    4.0338 H       1  LIG1        0.0000
     23 H           6.7018    1.5386    3.4603 H       1  LIG1        0.0000
     24 H           4.6762   -2.0421    2.1148 H       1  LIG1        0.0000
     25 H           6.1010   -3.8667    1.4961 H       1  LIG1        0.0000
     26 H           8.3921   -3.4615    0.9539 H       1  LIG1        0.0000
     27 H           9.2713   -1.2419    1.0257 H       1  LIG1        0.0000
     28 H           7.8535    0.5883    1.6456 H       1  LIG1        0.0000
     29 H           3.6583   -0.1893    1.2456 H       1  LIG1        0.0000
@<TRIPOS>BOND
     1     1     2    1
     2     2     3    1
     3     2     4    1
     4     4     5    1
     5     5     6    2
     6     6     7    1
     7     7     8   ar
     8     8     9   ar
     9     9    10   ar
    10    10    11    1
    11    11    12   ar
    12    12    13   ar
    13    13    14   ar
    14    14    15   ar
    15    15    16   ar
    16    16    11   ar
    17    10    17   ar
    18    17    18   ar
    19    18     7   ar
    20    18     4    1
    21     2    19    1
    22     5    20    1
    23     6    21    1
    24     8    22    1
    25     9    23    1
    26    12    24    1
    27    13    25    1
    28    14    26    1
    29    15    27    1
    30    16    28    1
    31    17    29    1
