@<TRIPOS>MOLECULE
*****
 29 31 0 0 0
SMALL
USER_CHARGES

@<TRIPOS>ATOM
      1 F1          1.6970   -0.0565    0.5916 F       1  LIG1        0.0000
      2 C2          1.0000    1.0000    1.0000 C.3     1  LIG1        0.0000
      3 F3          0.5916    1.6970   -0.0565 F       1  LIG1        0.0000
      4 N4          1.8492    1.8492    1.8492 N.pl3   1  LIG1        0.0000
      5 C5          2.1635    3.1497    1.5790 C.2     1  LIG1        0.0000
      6 C6          2.9672    3.5973    2.5881 C.2     1  LIG1        0.0000
      7 C7          3.1503    2.5366    3.5076 C.ar    1  LIG1        0.0000
      8 C8          3.8467    2.3919    4.7035 C.ar    1  LIG1        0.0000
      9 C9          3.8355    1.1891    5.4034 C.ar    1  LIG1        0.0000
     10 C10         3.1140    0.1139    4.8948 C.ar    1  LIG1        0.0000
     11 C11         3.0701   -1.1605    5.5856 C.ar    1  LIG1        0.0000
     12 C12         3.7614   -1.3189    6.7822 C.ar    1  LIG1        0.0000
     13 C13         3.7145   -2.5448    7.4376 C.ar    1  LIG1        0.0000
     14 C14         2.9815   -3.5963    6.8959 C.ar    1  LIG1        0.0000
     15 C15         2.2930   -3.4290    5.6989 C.ar    1  LIG1        0.0000
     16 C16         2.3352   -2.2062    5.0365 C.ar    1  LIG1        0.0000
     17 C17         2.4179    0.2550    3.7008 C.ar    1  LIG1        0.0000
     18 C18         2.4439    1.4657    3.0175 C.ar    1  LIG1        0.0000
     19 H           0.2056    0.6929    1.5241 H       1  LIG1        0.0000
     20 H           1.8604    3.6784    0.7862 H       1  LIG1        0.0000
     21 H           3.3583    4.5145    2.6643 H       1  LIG1        0.0000
     22 H           4.3647    3.1663    5.0668 H       1  LIG1        0.0000
     23 H           4.3401    1.0987    6.2619 H       1  LIG1        0.0000
     24 H           4.2864   -0.5597    7.1670 H       1  LIG1        0.0000
     25 H           4.2076   -2.6705    8.2984 H       1  LIG1        0.0000
     26 H           2.9496   -4.4765    7.3695 H       1  LIG1        0.0000
     27 H           1.7674   -4.1879    5.3143 H       1  LIG1        0.0000
     28 H           1.8428   -2.0805    4.1753 H       1  LIG1        0.0000
     29 H           1.8974   -0.5153    3.3323 H       1  LIG1        0.0000
@<TRIPOS>BOND
     1     1     2    1
     2     2     3    1
     3     2     4    1
     4     4     5    1
     5     5     6    2
     6     6     7    1
     7     7     8   ar
     8     8     9   ar
     9     9    10   ar
    10    10    11    1
    11    11    12   ar
    12    12    13   ar
    13    13    14   ar
    14    14    15   ar
    15    15    16   ar
    16    16    11   ar
    17    10    17   ar
    18    17    18   ar
    19    18     7   ar
    20    18     4    1
    21     2    19    1
    22     5    20    1
    23     6    21    1
    24     8    22    1
    25     9    23    1
    26    12    24    1
    27    13    25    1
    28    14    26    1
    29    15    27    1
    30    16    28    1
    31    17    29    1
