@<TRIPOS>MOLECULE

  28   30
SMALL
USER_CHARGES
@<TRIPOS>ATOM
   1 C1           4.1959     2.7772     2.0523 C.3          1    LIG   0.0000
   2 C2           3.3375     1.5782     1.6943 C.3          1    LIG   0.0000
   3 C3           2.6066     1.0494     2.8937 C.3          1    LIG   0.0000
   4 C4           1.8776     1.8776     1.8776 C.3          1    LIG   0.0000
   5 C5           1.0000     1.0000     1.0000 C.3          1    LIG   0.0000
   6 O6          -0.3645     1.3282     1.2164 O.3          1    LIG   0.0000
   7 C7          -1.2580     0.6145     0.4909 C.ar         1    LIG   0.0000
   8 C8          -0.8460    -0.3696    -0.4016 C.ar         1    LIG   0.0000
   9 C9          -1.7694    -1.0990    -1.1441 C.ar         1    LIG   0.0000
  10 C10         -3.1340    -0.8634    -1.0139 C.ar         1    LIG   0.0000
  11 O11         -4.2071    -1.3814    -1.5684 O.2          1    LIG   0.0000
  12 C12         -5.2493    -0.7641    -1.0610 C.2          1    LIG   0.0000
  13 O13         -6.4113    -0.9955    -1.3543 O.2          1    LIG   0.0000
  14 O14         -4.8585     0.1393    -0.1910 O.2          1    LIG   0.0000
  15 C15         -3.5467     0.1058    -0.1354 C.ar         1    LIG   0.0000
  16 C16         -2.6263     0.8379     0.6091 C.ar         1    LIG   0.0000
  17 H            3.6317     0.9514     0.9728 H            1    LIG   0.0000
  18 H            1.5837     2.8053     2.1082 H            1    LIG   0.0000
  19 H            5.1603     2.5480     1.9206 H            1    LIG   0.0000
  20 H            3.9532     3.5485     1.4639 H            1    LIG   0.0000
  21 H            4.0398     3.0253     3.0084 H            1    LIG   0.0000
  22 H            2.4154     0.0709     2.9712 H            1    LIG   0.0000
  23 H            2.7972     1.4247     3.8008 H            1    LIG   0.0000
  24 H            1.2311     1.1524     0.0391 H            1    LIG   0.0000
  25 H            1.1524     0.0391     1.2311 H            1    LIG   0.0000
  26 H            0.1303    -0.5561    -0.5114 H            1    LIG   0.0000
  27 H           -1.4479    -1.8013    -1.7793 H            1    LIG   0.0000
  28 H           -2.9552     1.5387     1.2420 H            1    LIG   0.0000
@<TRIPOS>BOND
   1        1        2 1
   2        2        3 1
   3        3        4 1
   4        4        2 1
   5        4        5 1
   6        5        6 1
   7        6        7 1
   8        7        8 ar
   9        8        9 ar
  10        9       10 ar
  11       10       11 1
  12       11       12 1
  13       12       13 2
  14       12       14 1
  15       14       15 1
  16       15       10 ar
  17       15       16 ar
  18       16        7 ar
  19        2       17 1
  20        4       18 1
  21        1       19 1
  22        1       20 1
  23        1       21 1
  24        3       22 1
  25        3       23 1
  26        5       24 1
  27        5       25 1
  28        8       26 1
  29        9       27 1
  30       16       28 1

@<TRIPOS>MOLECULE

  28   30
SMALL
USER_CHARGES
@<TRIPOS>ATOM
   1 C1           4.1959     2.7772     2.0523 C.3          1    LIG   0.0000
   2 C2           3.3375     1.5782     1.6943 C.3          1    LIG   0.0000
   3 C3           2.6066     1.0494     2.8937 C.3          1    LIG   0.0000
   4 C4           1.8776     1.8776     1.8776 C.3          1    LIG   0.0000
   5 C5           1.0000     1.0000     1.0000 C.3          1    LIG   0.0000
   6 O6          -0.3645     1.3282     1.2164 O.3          1    LIG   0.0000
   7 C7          -1.2580     0.6145     0.4909 C.ar         1    LIG   0.0000
   8 C8          -2.6266     0.8346     0.6066 C.ar         1    LIG   0.0000
   9 C9          -3.5391     0.0976    -0.1417 C.ar         1    LIG   0.0000
  10 C10         -3.1067    -0.8825    -1.0287 C.ar         1    LIG   0.0000
  11 O11         -3.7200    -1.7114    -1.8437 O.2          1    LIG   0.0000
  12 C12         -2.7971    -2.4241    -2.4480 C.2          1    LIG   0.0000
  13 O13         -3.0149    -3.2948    -3.2752 O.2          1    LIG   0.0000
  14 O14         -1.6045    -2.0628    -2.0323 O.2          1    LIG   0.0000
  15 C15         -1.7583    -1.1043    -1.1475 C.ar         1    LIG   0.0000
  16 C16         -0.8420    -0.3695    -0.4007 C.ar         1    LIG   0.0000
  17 H            3.6317     0.9514     0.9728 H            1    LIG   0.0000
  18 H            1.5837     2.8053     2.1082 H            1    LIG   0.0000
  19 H            5.1603     2.5480     1.9206 H            1    LIG   0.0000
  20 H            3.9532     3.5485     1.4639 H            1    LIG   0.0000
  21 H            4.0398     3.0253     3.0084 H            1    LIG   0.0000
  22 H            2.4154     0.0709     2.9712 H            1    LIG   0.0000
  23 H            2.7972     1.4247     3.8008 H            1    LIG   0.0000
  24 H            1.2311     1.1524     0.0391 H            1    LIG   0.0000
  25 H            1.1524     0.0391     1.2311 H            1    LIG   0.0000
  26 H           -2.9602     1.5344     1.2382 H            1    LIG   0.0000
  27 H           -4.5181     0.2747    -0.0404 H            1    LIG   0.0000
  28 H            0.1353    -0.5524    -0.5071 H            1    LIG   0.0000
@<TRIPOS>BOND
   1        1        2 1
   2        2        3 1
   3        3        4 1
   4        4        2 1
   5        4        5 1
   6        5        6 1
   7        6        7 1
   8        7        8 ar
   9        8        9 ar
  10        9       10 ar
  11       10       11 1
  12       11       12 1
  13       12       13 2
  14       12       14 1
  15       14       15 1
  16       15       10 ar
  17       15       16 ar
  18       16        7 ar
  19        2       17 1
  20        4       18 1
  21        1       19 1
  22        1       20 1
  23        1       21 1
  24        3       22 1
  25        3       23 1
  26        5       24 1
  27        5       25 1
  28        8       26 1
  29        9       27 1
  30       16       28 1

@<TRIPOS>MOLECULE

  28   30
SMALL
USER_CHARGES
@<TRIPOS>ATOM
   1 C1           4.1959     2.7772     2.0523 C.3          1    LIG   0.0000
   2 C2           3.3375     1.5782     1.6943 C.3          1    LIG   0.0000
   3 C3           2.6066     1.0494     2.8937 C.3          1    LIG   0.0000
   4 C4           1.8776     1.8776     1.8776 C.3          1    LIG   0.0000
   5 C5           1.0000     1.0000     1.0000 C.3          1    LIG   0.0000
   6 O6          -0.3645     1.3282     1.2164 O.3          1    LIG   0.0000
   7 C7          -0.8088     2.4310     0.5680 C.ar         1    LIG   0.0000
   8 C8           0.0314     3.1786    -0.2504 C.ar         1    LIG   0.0000
   9 C9          -0.4315     4.3108    -0.9135 C.ar         1    LIG   0.0000
  10 C10         -1.7514     4.7274    -0.7760 C.ar         1    LIG   0.0000
  11 O11         -2.4492     5.7274    -1.2663 O.2          1    LIG   0.0000
  12 C12         -3.6686     5.6279    -0.7889 C.2          1    LIG   0.0000
  13 O13         -4.5834     6.3963    -1.0393 O.2          1    LIG   0.0000
  14 O14         -3.7605     4.5798    -0.0023 O.2          1    LIG   0.0000
  15 C15         -2.5851     3.9944     0.0297 C.ar         1    LIG   0.0000
  16 C16         -2.1260     2.8613     0.6950 C.ar         1    LIG   0.0000
  17 H            3.6317     0.9514     0.9728 H            1    LIG   0.0000
  18 H            1.5837     2.8053     2.1082 H            1    LIG   0.0000
  19 H            5.1603     2.5480     1.9206 H            1    LIG   0.0000
  20 H            3.9532     3.5485     1.4639 H            1    LIG   0.0000
  21 H            4.0398     3.0253     3.0084 H            1    LIG   0.0000
  22 H            2.4154     0.0709     2.9712 H            1    LIG   0.0000
  23 H            2.7972     1.4247     3.8008 H            1    LIG   0.0000
  24 H            1.2311     1.1524     0.0391 H            1    LIG   0.0000
  25 H            1.1524     0.0391     1.2311 H            1    LIG   0.0000
  26 H            0.9844     2.8977    -0.3641 H            1    LIG   0.0000
  27 H            0.1924     4.8315    -1.4963 H            1    LIG   0.0000
  28 H           -2.7557     2.3459     1.2762 H            1    LIG   0.0000
@<TRIPOS>BOND
   1        1        2 1
   2        2        3 1
   3        3        4 1
   4        4        2 1
   5        4        5 1
   6        5        6 1
   7        6        7 1
   8        7        8 ar
   9        8        9 ar
  10        9       10 ar
  11       10       11 1
  12       11       12 1
  13       12       13 2
  14       12       14 1
  15       14       15 1
  16       15       10 ar
  17       15       16 ar
  18       16        7 ar
  19        2       17 1
  20        4       18 1
  21        1       19 1
  22        1       20 1
  23        1       21 1
  24        3       22 1
  25        3       23 1
  26        5       24 1
  27        5       25 1
  28        8       26 1
  29        9       27 1
  30       16       28 1

@<TRIPOS>MOLECULE

  28   30
SMALL
USER_CHARGES
@<TRIPOS>ATOM
   1 C1           4.1959     2.7772     2.0523 C.3          1    LIG   0.0000
   2 C2           3.3375     1.5782     1.6943 C.3          1    LIG   0.0000
   3 C3           2.6066     1.0494     2.8937 C.3          1    LIG   0.0000
   4 C4           1.8776     1.8776     1.8776 C.3          1    LIG   0.0000
   5 C5           1.0000     1.0000     1.0000 C.3          1    LIG   0.0000
   6 O6          -0.3645     1.3282     1.2164 O.3          1    LIG   0.0000
   7 C7          -0.8088     2.4310     0.5680 C.ar         1    LIG   0.0000
   8 C8          -2.1248     2.8641     0.6922 C.ar         1    LIG   0.0000
   9 C9          -2.5749     3.9978     0.0229 C.ar         1    LIG   0.0000
  10 C10         -1.7185     4.7317    -0.7912 C.ar         1    LIG   0.0000
  11 O11         -1.8594     5.8131    -1.5247 O.2          1    LIG   0.0000
  12 C12         -0.6994     6.0600    -2.0887 C.2          1    LIG   0.0000
  13 O13         -0.4708     6.9947    -2.8398 O.2          1    LIG   0.0000
  14 O14          0.1799     5.1538    -1.7262 O.2          1    LIG   0.0000
  15 C15         -0.4195     4.3099    -0.9177 C.ar         1    LIG   0.0000
  16 C16          0.0347     3.1762    -0.2502 C.ar         1    LIG   0.0000
  17 H            3.6317     0.9514     0.9728 H            1    LIG   0.0000
  18 H            1.5837     2.8053     2.1082 H            1    LIG   0.0000
  19 H            5.1603     2.5480     1.9206 H            1    LIG   0.0000
  20 H            3.9532     3.5485     1.4639 H            1    LIG   0.0000
  21 H            4.0398     3.0253     3.0084 H            1    LIG   0.0000
  22 H            2.4154     0.0709     2.9712 H            1    LIG   0.0000
  23 H            2.7972     1.4247     3.8008 H            1    LIG   0.0000
  24 H            1.2311     1.1524     0.0391 H            1    LIG   0.0000
  25 H            1.1524     0.0391     1.2311 H            1    LIG   0.0000
  26 H           -2.7582     2.3519     1.2723 H            1    LIG   0.0000
  27 H           -3.5258     4.2887     0.1284 H            1    LIG   0.0000
  28 H            0.9868     2.8913    -0.3608 H            1    LIG   0.0000
@<TRIPOS>BOND
   1        1        2 1
   2        2        3 1
   3        3        4 1
   4        4        2 1
   5        4        5 1
   6        5        6 1
   7        6        7 1
   8        7        8 ar
   9        8        9 ar
  10        9       10 ar
  11       10       11 1
  12       11       12 1
  13       12       13 2
  14       12       14 1
  15       14       15 1
  16       15       10 ar
  17       15       16 ar
  18       16        7 ar
  19        2       17 1
  20        4       18 1
  21        1       19 1
  22        1       20 1
  23        1       21 1
  24        3       22 1
  25        3       23 1
  26        5       24 1
  27        5       25 1
  28        8       26 1
  29        9       27 1
  30       16       28 1

@<TRIPOS>MOLECULE

  28   30
SMALL
USER_CHARGES
@<TRIPOS>ATOM
   1 C1           4.1959     2.7772     2.0523 C.3          1    LIG   0.0000
   2 C2           3.3375     1.5782     1.6943 C.3          1    LIG   0.0000
   3 C3           2.6066     1.0494     2.8937 C.3          1    LIG   0.0000
   4 C4           1.8776     1.8776     1.8776 C.3          1    LIG   0.0000
   5 C5           1.0000     1.0000     1.0000 C.3          1    LIG   0.0000
   6 O6          -0.3645     1.3282     1.2164 O.3          1    LIG   0.0000
   7 C7          -0.9249     0.7896     2.3255 C.ar         1    LIG   0.0000
   8 C8          -0.4309    -0.3809     2.8919 C.ar         1    LIG   0.0000
   9 C9          -1.0117    -0.9290     4.0313 C.ar         1    LIG   0.0000
  10 C10         -2.1054    -0.3197     4.6371 C.ar         1    LIG   0.0000
  11 O11         -2.8392    -0.6002     5.6908 O.2          1    LIG   0.0000
  12 C12         -3.7533     0.3371     5.7946 C.2          1    LIG   0.0000
  13 O13         -4.6074     0.3887     6.6651 O.2          1    LIG   0.0000
  14 O14         -3.6142     1.2117     4.8243 O.2          1    LIG   0.0000
  15 C15         -2.5972     0.8348     4.0834 C.ar         1    LIG   0.0000
  16 C16         -2.0194     1.3864     2.9436 C.ar         1    LIG   0.0000
  17 H            3.6317     0.9514     0.9728 H            1    LIG   0.0000
  18 H            1.5837     2.8053     2.1082 H            1    LIG   0.0000
  19 H            5.1603     2.5480     1.9206 H            1    LIG   0.0000
  20 H            3.9532     3.5485     1.4639 H            1    LIG   0.0000
  21 H            4.0398     3.0253     3.0084 H            1    LIG   0.0000
  22 H            2.4154     0.0709     2.9712 H            1    LIG   0.0000
  23 H            2.7972     1.4247     3.8008 H            1    LIG   0.0000
  24 H            1.2311     1.1524     0.0391 H            1    LIG   0.0000
  25 H            1.1524     0.0391     1.2311 H            1    LIG   0.0000
  26 H            0.3548    -0.8361     2.4731 H            1    LIG   0.0000
  27 H           -0.6381    -1.7715     4.4194 H            1    LIG   0.0000
  28 H           -2.3987     2.2289     2.5610 H            1    LIG   0.0000
@<TRIPOS>BOND
   1        1        2 1
   2        2        3 1
   3        3        4 1
   4        4        2 1
   5        4        5 1
   6        5        6 1
   7        6        7 1
   8        7        8 ar
   9        8        9 ar
  10        9       10 ar
  11       10       11 1
  12       11       12 1
  13       12       13 2
  14       12       14 1
  15       14       15 1
  16       15       10 ar
  17       15       16 ar
  18       16        7 ar
  19        2       17 1
  20        4       18 1
  21        1       19 1
  22        1       20 1
  23        1       21 1
  24        3       22 1
  25        3       23 1
  26        5       24 1
  27        5       25 1
  28        8       26 1
  29        9       27 1
  30       16       28 1

@<TRIPOS>MOLECULE

  28   30
SMALL
USER_CHARGES
@<TRIPOS>ATOM
   1 C1           4.1959     2.7772     2.0523 C.3          1    LIG   0.0000
   2 C2           3.3375     1.5782     1.6943 C.3          1    LIG   0.0000
   3 C3           2.6066     1.0494     2.8937 C.3          1    LIG   0.0000
   4 C4           1.8776     1.8776     1.8776 C.3          1    LIG   0.0000
   5 C5           1.0000     1.0000     1.0000 C.3          1    LIG   0.0000
   6 O6          -0.3645     1.3282     1.2164 O.3          1    LIG   0.0000
   7 C7          -0.9249     0.7896     2.3255 C.ar         1    LIG   0.0000
   8 C8          -2.0188     1.3834     2.9464 C.ar         1    LIG   0.0000
   9 C9          -2.5896     0.8249     4.0858 C.ar         1    LIG   0.0000
  10 C10         -2.0804    -0.3463     4.6368 C.ar         1    LIG   0.0000
  11 O11         -2.4043    -1.0825     5.6763 O.2          1    LIG   0.0000
  12 C12         -1.5651    -2.0917     5.7207 C.2          1    LIG   0.0000
  13 O13         -1.5765    -2.9752     6.5629 O.2          1    LIG   0.0000
  14 O14         -0.7112    -2.0118     4.7257 O.2          1    LIG   0.0000
  15 C15         -1.0018    -0.9368     4.0292 C.ar         1    LIG   0.0000
  16 C16         -0.4277    -0.3813     2.8894 C.ar         1    LIG   0.0000
  17 H            3.6317     0.9514     0.9728 H            1    LIG   0.0000
  18 H            1.5837     2.8053     2.1082 H            1    LIG   0.0000
  19 H            5.1603     2.5480     1.9206 H            1    LIG   0.0000
  20 H            3.9532     3.5485     1.4639 H            1    LIG   0.0000
  21 H            4.0398     3.0253     3.0084 H            1    LIG   0.0000
  22 H            2.4154     0.0709     2.9712 H            1    LIG   0.0000
  23 H            2.7972     1.4247     3.8008 H            1    LIG   0.0000
  24 H            1.2311     1.1524     0.0391 H            1    LIG   0.0000
  25 H            1.1524     0.0391     1.2311 H            1    LIG   0.0000
  26 H           -2.4015     2.2260     2.5675 H            1    LIG   0.0000
  27 H           -3.3755     1.2710     4.5138 H            1    LIG   0.0000
  28 H            0.3583    -0.8329     2.4671 H            1    LIG   0.0000
@<TRIPOS>BOND
   1        1        2 1
   2        2        3 1
   3        3        4 1
   4        4        2 1
   5        4        5 1
   6        5        6 1
   7        6        7 1
   8        7        8 ar
   9        8        9 ar
  10        9       10 ar
  11       10       11 1
  12       11       12 1
  13       12       13 2
  14       12       14 1
  15       14       15 1
  16       15       10 ar
  17       15       16 ar
  18       16        7 ar
  19        2       17 1
  20        4       18 1
  21        1       19 1
  22        1       20 1
  23        1       21 1
  24        3       22 1
  25        3       23 1
  26        5       24 1
  27        5       25 1
  28        8       26 1
  29        9       27 1
  30       16       28 1

@<TRIPOS>MOLECULE

  28   30
SMALL
USER_CHARGES
@<TRIPOS>ATOM
   1 C1           4.1959     2.7772     2.0523 C.3          1    LIG   0.0000
   2 C2           3.3375     1.5782     1.6943 C.3          1    LIG   0.0000
   3 C3           2.6066     1.0494     2.8937 C.3          1    LIG   0.0000
   4 C4           1.8776     1.8776     1.8776 C.3          1    LIG   0.0000
   5 C5           1.0000     1.0000     1.0000 C.3          1    LIG   0.0000
   6 O6          -0.3645     1.3282     1.2164 O.3          1    LIG   0.0000
   7 C7          -1.0406     0.4949     2.0426 C.ar         1    LIG   0.0000
   8 C8          -0.3828    -0.2591     3.0088 C.ar         1    LIG   0.0000
   9 C9          -1.0836    -1.1136     3.8542 C.ar         1    LIG   0.0000
  10 C10         -2.4655    -1.2374     3.7563 C.ar         1    LIG   0.0000
  11 O11         -3.3669    -1.9442     4.4007 O.2          1    LIG   0.0000
  12 C12         -4.5375    -1.6604     3.8772 C.2          1    LIG   0.0000
  13 O13         -5.6003    -2.1409     4.2370 O.2          1    LIG   0.0000
  14 O14         -4.3977    -0.7832     2.9094 O.2          1    LIG   0.0000
  15 C15         -3.1201    -0.4965     2.8055 C.ar         1    LIG   0.0000
  16 C16         -2.4229     0.3592     1.9577 C.ar         1    LIG   0.0000
  17 H            3.6317     0.9514     0.9728 H            1    LIG   0.0000
  18 H            1.5837     2.8053     2.1082 H            1    LIG   0.0000
  19 H            5.1603     2.5480     1.9206 H            1    LIG   0.0000
  20 H            3.9532     3.5485     1.4639 H            1    LIG   0.0000
  21 H            4.0398     3.0253     3.0084 H            1    LIG   0.0000
  22 H            2.4154     0.0709     2.9712 H            1    LIG   0.0000
  23 H            2.7972     1.4247     3.8008 H            1    LIG   0.0000
  24 H            1.2311     1.1524     0.0391 H            1    LIG   0.0000
  25 H            1.1524     0.0391     1.2311 H            1    LIG   0.0000
  26 H            0.6106    -0.1859     3.0973 H            1    LIG   0.0000
  27 H           -0.5876    -1.6452     4.5408 H            1    LIG   0.0000
  28 H           -2.9256     0.8874     1.2734 H            1    LIG   0.0000
@<TRIPOS>BOND
   1        1        2 1
   2        2        3 1
   3        3        4 1
   4        4        2 1
   5        4        5 1
   6        5        6 1
   7        6        7 1
   8        7        8 ar
   9        8        9 ar
  10        9       10 ar
  11       10       11 1
  12       11       12 1
  13       12       13 2
  14       12       14 1
  15       14       15 1
  16       15       10 ar
  17       15       16 ar
  18       16        7 ar
  19        2       17 1
  20        4       18 1
  21        1       19 1
  22        1       20 1
  23        1       21 1
  24        3       22 1
  25        3       23 1
  26        5       24 1
  27        5       25 1
  28        8       26 1
  29        9       27 1
  30       16       28 1

@<TRIPOS>MOLECULE

  28   30
SMALL
USER_CHARGES
@<TRIPOS>ATOM
   1 C1           3.9077     3.3219     1.7958 C.3          1    LIG   0.0000
   2 C2           3.2596     2.0377     1.3127 C.3          1    LIG   0.0000
   3 C3           3.0170     1.0856     2.4471 C.3          1    LIG   0.0000
   4 C4           1.8776     1.8776     1.8776 C.3          1    LIG   0.0000
   5 C5           1.0000     1.0000     1.0000 C.3          1    LIG   0.0000
   6 O6          -0.3645     1.3282     1.2164 O.3          1    LIG   0.0000
   7 C7          -1.2177     0.9507     0.2348 C.ar         1    LIG   0.0000
   8 C8          -0.9218    -0.1102    -0.6147 C.ar         1    LIG   0.0000
   9 C9          -1.8028    -0.4926    -1.6214 C.ar         1    LIG   0.0000
  10 C10         -3.0075     0.1775    -1.8064 C.ar         1    LIG   0.0000
  11 O11         -4.0072     0.0430    -2.6490 O.2          1    LIG   0.0000
  12 C12         -4.8946     0.9661    -2.3574 C.2          1    LIG   0.0000
  13 O13         -5.9525     1.1303    -2.9438 O.2          1    LIG   0.0000
  14 O14         -4.4777     1.6871    -1.3416 O.2          1    LIG   0.0000
  15 C15         -3.3053     1.2245    -0.9719 C.ar         1    LIG   0.0000
  16 C16         -2.4267     1.6105     0.0362 C.ar         1    LIG   0.0000
  17 H            3.4702     1.6846     0.4012 H            1    LIG   0.0000
  18 H            1.4681     2.6174     2.4116 H            1    LIG   0.0000
  19 H            4.8245     3.4005     1.4040 H            1    LIG   0.0000
  20 H            3.3542     4.1034     1.5080 H            1    LIG   0.0000
  21 H            3.9718     3.3081     2.7936 H            1    LIG   0.0000
  22 H            3.0672     0.0991     2.2912 H            1    LIG   0.0000
  23 H            3.3655     1.2969     3.3603 H            1    LIG   0.0000
  24 H            1.2311     1.1524     0.0391 H            1    LIG   0.0000
  25 H            1.1524     0.0391     1.2311 H            1    LIG   0.0000
  26 H           -0.0612    -0.6064    -0.5000 H            1    LIG   0.0000
  27 H           -1.5669    -1.2587    -2.2193 H            1    LIG   0.0000
  28 H           -2.6692     2.3777     0.6300 H            1    LIG   0.0000
@<TRIPOS>BOND
   1        1        2 1
   2        2        3 1
   3        3        4 1
   4        4        2 1
   5        4        5 1
   6        5        6 1
   7        6        7 1
   8        7        8 ar
   9        8        9 ar
  10        9       10 ar
  11       10       11 1
  12       11       12 1
  13       12       13 2
  14       12       14 1
  15       14       15 1
  16       15       10 ar
  17       15       16 ar
  18       16        7 ar
  19        2       17 1
  20        4       18 1
  21        1       19 1
  22        1       20 1
  23        1       21 1
  24        3       22 1
  25        3       23 1
  26        5       24 1
  27        5       25 1
  28        8       26 1
  29        9       27 1
  30       16       28 1

@<TRIPOS>MOLECULE

  28   30
SMALL
USER_CHARGES
@<TRIPOS>ATOM
   1 C1           3.9077     3.3219     1.7958 C.3          1    LIG   0.0000
   2 C2           3.2596     2.0377     1.3127 C.3          1    LIG   0.0000
   3 C3           3.0170     1.0856     2.4471 C.3          1    LIG   0.0000
   4 C4           1.8776     1.8776     1.8776 C.3          1    LIG   0.0000
   5 C5           1.0000     1.0000     1.0000 C.3          1    LIG   0.0000
   6 O6          -0.3645     1.3282     1.2164 O.3          1    LIG   0.0000
   7 C7          -1.1422     1.3487     0.1079 C.ar         1    LIG   0.0000
   8 C8          -2.3029     2.1130     0.0506 C.ar         1    LIG   0.0000
   9 C9          -3.0975     2.1293    -1.0914 C.ar         1    LIG   0.0000
  10 C10         -2.7518     1.3795    -2.2107 C.ar         1    LIG   0.0000
  11 O11         -3.2934     1.2044    -3.3954 O.2          1    LIG   0.0000
  12 C12         -2.5240     0.3739    -4.0610 C.2          1    LIG   0.0000
  13 O13         -2.7300    -0.0102    -5.2012 O.2          1    LIG   0.0000
  14 O14         -1.4996     0.0166    -3.3203 O.2          1    LIG   0.0000
  15 C15         -1.6083     0.6237    -2.1607 C.ar         1    LIG   0.0000
  16 C16         -0.8107     0.6044    -1.0201 C.ar         1    LIG   0.0000
  17 H            3.4702     1.6846     0.4012 H            1    LIG   0.0000
  18 H            1.4681     2.6174     2.4116 H            1    LIG   0.0000
  19 H            4.8245     3.4005     1.4040 H            1    LIG   0.0000
  20 H            3.3542     4.1034     1.5080 H            1    LIG   0.0000
  21 H            3.9718     3.3081     2.7936 H            1    LIG   0.0000
  22 H            3.0672     0.0991     2.2912 H            1    LIG   0.0000
  23 H            3.3655     1.2969     3.3603 H            1    LIG   0.0000
  24 H            1.2311     1.1524     0.0391 H            1    LIG   0.0000
  25 H            1.1524     0.0391     1.2311 H            1    LIG   0.0000
  26 H           -2.5709     2.6600     0.8437 H            1    LIG   0.0000
  27 H           -3.9274     2.6870    -1.1077 H            1    LIG   0.0000
  28 H            0.0175     0.0442    -1.0112 H            1    LIG   0.0000
@<TRIPOS>BOND
   1        1        2 1
   2        2        3 1
   3        3        4 1
   4        4        2 1
   5        4        5 1
   6        5        6 1
   7        6        7 1
   8        7        8 ar
   9        8        9 ar
  10        9       10 ar
  11       10       11 1
  12       11       12 1
  13       12       13 2
  14       12       14 1
  15       14       15 1
  16       15       10 ar
  17       15       16 ar
  18       16        7 ar
  19        2       17 1
  20        4       18 1
  21        1       19 1
  22        1       20 1
  23        1       21 1
  24        3       22 1
  25        3       23 1
  26        5       24 1
  27        5       25 1
  28        8       26 1
  29        9       27 1
  30       16       28 1

@<TRIPOS>MOLECULE

  28   30
SMALL
USER_CHARGES
@<TRIPOS>ATOM
   1 C1           3.9077     3.3219     1.7958 C.3          1    LIG   0.0000
   2 C2           3.2596     2.0377     1.3127 C.3          1    LIG   0.0000
   3 C3           3.0170     1.0856     2.4471 C.3          1    LIG   0.0000
   4 C4           1.8776     1.8776     1.8776 C.3          1    LIG   0.0000
   5 C5           1.0000     1.0000     1.0000 C.3          1    LIG   0.0000
   6 O6          -0.3645     1.3282     1.2164 O.3          1    LIG   0.0000
   7 C7          -0.7071     2.6089     0.9398 C.ar         1    LIG   0.0000
   8 C8           0.2314     3.6349     0.9781 C.ar         1    LIG   0.0000
   9 C9          -0.1274     4.9486     0.6930 C.ar         1    LIG   0.0000
  10 C10         -1.4384     5.2731     0.3607 C.ar         1    LIG   0.0000
  11 O11         -2.0514     6.3938     0.0513 O.2          1    LIG   0.0000
  12 C12         -3.3126     6.1037    -0.1722 C.2          1    LIG   0.0000
  13 O13         -4.1722     6.9122    -0.4843 O.2          1    LIG   0.0000
  14 O14         -3.5143     4.8157    -0.0113 O.2          1    LIG   0.0000
  15 C15         -2.3687     4.2658     0.3211 C.ar         1    LIG   0.0000
  16 C16         -2.0140     2.9504     0.6058 C.ar         1    LIG   0.0000
  17 H            3.4702     1.6846     0.4012 H            1    LIG   0.0000
  18 H            1.4681     2.6174     2.4116 H            1    LIG   0.0000
  19 H            4.8245     3.4005     1.4040 H            1    LIG   0.0000
  20 H            3.3542     4.1034     1.5080 H            1    LIG   0.0000
  21 H            3.9718     3.3081     2.7936 H            1    LIG   0.0000
  22 H            3.0672     0.0991     2.2912 H            1    LIG   0.0000
  23 H            3.3655     1.2969     3.3603 H            1    LIG   0.0000
  24 H            1.2311     1.1524     0.0391 H            1    LIG   0.0000
  25 H            1.1524     0.0391     1.2311 H            1    LIG   0.0000
  26 H            1.1801     3.4247     1.2145 H            1    LIG   0.0000
  27 H            0.5659     5.6684     0.7274 H            1    LIG   0.0000
  28 H           -2.7128     2.2360     0.5697 H            1    LIG   0.0000
@<TRIPOS>BOND
   1        1        2 1
   2        2        3 1
   3        3        4 1
   4        4        2 1
   5        4        5 1
   6        5        6 1
   7        6        7 1
   8        7        8 ar
   9        8        9 ar
  10        9       10 ar
  11       10       11 1
  12       11       12 1
  13       12       13 2
  14       12       14 1
  15       14       15 1
  16       15       10 ar
  17       15       16 ar
  18       16        7 ar
  19        2       17 1
  20        4       18 1
  21        1       19 1
  22        1       20 1
  23        1       21 1
  24        3       22 1
  25        3       23 1
  26        5       24 1
  27        5       25 1
  28        8       26 1
  29        9       27 1
  30       16       28 1

@<TRIPOS>MOLECULE

  28   30
SMALL
USER_CHARGES
@<TRIPOS>ATOM
   1 C1           3.9077     3.3219     1.7958 C.3          1    LIG   0.0000
   2 C2           3.2596     2.0377     1.3127 C.3          1    LIG   0.0000
   3 C3           3.0170     1.0856     2.4471 C.3          1    LIG   0.0000
   4 C4           1.8776     1.8776     1.8776 C.3          1    LIG   0.0000
   5 C5           1.0000     1.0000     1.0000 C.3          1    LIG   0.0000
   6 O6          -0.3645     1.3282     1.2164 O.3          1    LIG   0.0000
   7 C7          -0.8091     1.1655     2.4853 C.ar         1    LIG   0.0000
   8 C8          -2.1547     0.9433     2.7590 C.ar         1    LIG   0.0000
   9 C9          -2.6048     0.7772     4.0651 C.ar         1    LIG   0.0000
  10 C10         -1.7189     0.8288     5.1361 C.ar         1    LIG   0.0000
  11 O11         -1.8525     0.7100     6.4382 O.2          1    LIG   0.0000
  12 C12         -0.6600     0.8488     6.9704 C.2          1    LIG   0.0000
  13 O13         -0.4160     0.7952     8.1652 O.2          1    LIG   0.0000
  14 O14          0.2328     1.0536     6.0288 O.2          1    LIG   0.0000
  15 C15         -0.3907     1.0475     4.8727 C.ar         1    LIG   0.0000
  16 C16          0.0637     1.2144     3.5678 C.ar         1    LIG   0.0000
  17 H            3.4702     1.6846     0.4012 H            1    LIG   0.0000
  18 H            1.4681     2.6174     2.4116 H            1    LIG   0.0000
  19 H            4.8245     3.4005     1.4040 H            1    LIG   0.0000
  20 H            3.3542     4.1034     1.5080 H            1    LIG   0.0000
  21 H            3.9718     3.3081     2.7936 H            1    LIG   0.0000
  22 H            3.0672     0.0991     2.2912 H            1    LIG   0.0000
  23 H            3.3655     1.2969     3.3603 H            1    LIG   0.0000
  24 H            1.2311     1.1524     0.0391 H            1    LIG   0.0000
  25 H            1.1524     0.0391     1.2311 H            1    LIG   0.0000
  26 H           -2.8096     0.9023     2.0044 H            1    LIG   0.0000
  27 H           -3.5773     0.6188     4.2358 H            1    LIG   0.0000
  28 H            1.0376     1.3728     3.4049 H            1    LIG   0.0000
@<TRIPOS>BOND
   1        1        2 1
   2        2        3 1
   3        3        4 1
   4        4        2 1
   5        4        5 1
   6        5        6 1
   7        6        7 1
   8        7        8 ar
   9        8        9 ar
  10        9       10 ar
  11       10       11 1
  12       11       12 1
  13       12       13 2
  14       12       14 1
  15       14       15 1
  16       15       10 ar
  17       15       16 ar
  18       16        7 ar
  19        2       17 1
  20        4       18 1
  21        1       19 1
  22        1       20 1
  23        1       21 1
  24        3       22 1
  25        3       23 1
  26        5       24 1
  27        5       25 1
  28        8       26 1
  29        9       27 1
  30       16       28 1

@<TRIPOS>MOLECULE

  28   30
SMALL
USER_CHARGES
@<TRIPOS>ATOM
   1 C1           4.2615     2.2758     2.4881 C.3          1    LIG   0.0000
   2 C2           3.2029     1.2358     2.1713 C.3          1    LIG   0.0000
   3 C3           2.1170     1.2257     3.2071 C.3          1    LIG   0.0000
   4 C4           1.8776     1.8776     1.8776 C.3          1    LIG   0.0000
   5 C5           1.0000     1.0000     1.0000 C.3          1    LIG   0.0000
   6 O6          -0.3645     1.3282     1.2164 O.3          1    LIG   0.0000
   7 C7          -1.2581     0.3807     0.8452 C.ar         1    LIG   0.0000
   8 C8          -0.9538    -0.5586    -0.1346 C.ar         1    LIG   0.0000
   9 C9          -1.8766    -1.5292    -0.5115 C.ar         1    LIG   0.0000
  10 C10         -3.1327    -1.5873     0.0831 C.ar         1    LIG   0.0000
  11 O11         -4.1780    -2.3700    -0.0655 O.2          1    LIG   0.0000
  12 C12         -5.1017    -1.9561     0.7713 C.2          1    LIG   0.0000
  13 O13         -6.2069    -2.4583     0.8985 O.2          1    LIG   0.0000
  14 O14         -4.6623    -0.9221     1.4521 O.2          1    LIG   0.0000
  15 C15         -3.4389    -0.6639     1.0500 C.ar         1    LIG   0.0000
  16 C16         -2.5187     0.3089     1.4298 C.ar         1    LIG   0.0000
  17 H            3.4597     0.3870     1.7091 H            1    LIG   0.0000
  18 H            1.8083     2.8733     1.8155 H            1    LIG   0.0000
  19 H            5.1306     1.8195     2.6788 H            1    LIG   0.0000
  20 H            4.3714     2.8886     1.7055 H            1    LIG   0.0000
  21 H            3.9800     2.8048     3.2887 H            1    LIG   0.0000
  22 H            1.6518     0.3703     3.4353 H            1    LIG   0.0000
  23 H            2.2059     1.7866     4.0301 H            1    LIG   0.0000
  24 H            1.2311     1.1524     0.0391 H            1    LIG   0.0000
  25 H            1.1524     0.0391     1.2311 H            1    LIG   0.0000
  26 H           -0.0565    -0.5358    -0.5756 H            1    LIG   0.0000
  27 H           -1.6338    -2.1933    -1.2186 H            1    LIG   0.0000
  28 H           -2.7687     0.9698     2.1374 H            1    LIG   0.0000
@<TRIPOS>BOND
   1        1        2 1
   2        2        3 1
   3        3        4 1
   4        4        2 1
   5        4        5 1
   6        5        6 1
   7        6        7 1
   8        7        8 ar
   9        8        9 ar
  10        9       10 ar
  11       10       11 1
  12       11       12 1
  13       12       13 2
  14       12       14 1
  15       14       15 1
  16       15       10 ar
  17       15       16 ar
  18       16        7 ar
  19        2       17 1
  20        4       18 1
  21        1       19 1
  22        1       20 1
  23        1       21 1
  24        3       22 1
  25        3       23 1
  26        5       24 1
  27        5       25 1
  28        8       26 1
  29        9       27 1
  30       16       28 1

@<TRIPOS>MOLECULE

  28   30
SMALL
USER_CHARGES
@<TRIPOS>ATOM
   1 C1           4.2615     2.2758     2.4881 C.3          1    LIG   0.0000
   2 C2           3.2029     1.2358     2.1713 C.3          1    LIG   0.0000
   3 C3           2.1170     1.2257     3.2071 C.3          1    LIG   0.0000
   4 C4           1.8776     1.8776     1.8776 C.3          1    LIG   0.0000
   5 C5           1.0000     1.0000     1.0000 C.3          1    LIG   0.0000
   6 O6          -0.3645     1.3282     1.2164 O.3          1    LIG   0.0000
   7 C7          -1.2179     0.2774     1.2550 C.ar         1    LIG   0.0000
   8 C8          -2.4272     0.3502     1.9384 C.ar         1    LIG   0.0000
   9 C9          -3.2993    -0.7333     1.9742 C.ar         1    LIG   0.0000
  10 C10         -2.9849    -1.9228     1.3255 C.ar         1    LIG   0.0000
  11 O11         -3.5960    -3.0786     1.1907 O.2          1    LIG   0.0000
  12 C12         -2.8222    -3.8502     0.4623 C.2          1    LIG   0.0000
  13 O13         -3.0819    -4.9988     0.1410 O.2          1    LIG   0.0000
  14 O14         -1.7273    -3.2052     0.1295 O.2          1    LIG   0.0000
  15 C15         -1.7938    -2.0010     0.6498 C.ar         1    LIG   0.0000
  16 C16         -0.9185    -0.9196     0.6116 C.ar         1    LIG   0.0000
  17 H            3.4597     0.3870     1.7091 H            1    LIG   0.0000
  18 H            1.8083     2.8733     1.8155 H            1    LIG   0.0000
  19 H            5.1306     1.8195     2.6788 H            1    LIG   0.0000
  20 H            4.3714     2.8886     1.7055 H            1    LIG   0.0000
  21 H            3.9800     2.8048     3.2887 H            1    LIG   0.0000
  22 H            1.6518     0.3703     3.4353 H            1    LIG   0.0000
  23 H            2.2059     1.7866     4.0301 H            1    LIG   0.0000
  24 H            1.2311     1.1524     0.0391 H            1    LIG   0.0000
  25 H            1.1524     0.0391     1.2311 H            1    LIG   0.0000
  26 H           -2.6740     1.1957     2.4120 H            1    LIG   0.0000
  27 H           -4.1628    -0.6559     2.4726 H            1    LIG   0.0000
  28 H           -0.0567    -1.0045     0.1116 H            1    LIG   0.0000
@<TRIPOS>BOND
   1        1        2 1
   2        2        3 1
   3        3        4 1
   4        4        2 1
   5        4        5 1
   6        5        6 1
   7        6        7 1
   8        7        8 ar
   9        8        9 ar
  10        9       10 ar
  11       10       11 1
  12       11       12 1
  13       12       13 2
  14       12       14 1
  15       14       15 1
  16       15       10 ar
  17       15       16 ar
  18       16        7 ar
  19        2       17 1
  20        4       18 1
  21        1       19 1
  22        1       20 1
  23        1       21 1
  24        3       22 1
  25        3       23 1
  26        5       24 1
  27        5       25 1
  28        8       26 1
  29        9       27 1
  30       16       28 1

@<TRIPOS>MOLECULE

  28   30
SMALL
USER_CHARGES
@<TRIPOS>ATOM
   1 C1           4.2615     2.2758     2.4881 C.3          1    LIG   0.0000
   2 C2           3.2029     1.2358     2.1713 C.3          1    LIG   0.0000
   3 C3           2.1170     1.2257     3.2071 C.3          1    LIG   0.0000
   4 C4           1.8776     1.8776     1.8776 C.3          1    LIG   0.0000
   5 C5           1.0000     1.0000     1.0000 C.3          1    LIG   0.0000
   6 O6          -0.3645     1.3282     1.2164 O.3          1    LIG   0.0000
   7 C7          -0.9833     1.9559     0.1883 C.ar         1    LIG   0.0000
   8 C8          -0.2669     2.6988    -0.7443 C.ar         1    LIG   0.0000
   9 C9          -0.9091     3.3414    -1.7982 C.ar         1    LIG   0.0000
  10 C10         -2.2893     3.2583    -1.9486 C.ar         1    LIG   0.0000
  11 O11         -3.1439     3.7455    -2.8202 O.2          1    LIG   0.0000
  12 C12         -4.3416     3.3390    -2.4666 C.2          1    LIG   0.0000
  13 O13         -5.3751     3.6083    -3.0576 O.2          1    LIG   0.0000
  14 O14         -4.2651     2.5994    -1.3836 O.2          1    LIG   0.0000
  15 C15         -3.0015     2.5272    -1.0322 C.ar         1    LIG   0.0000
  16 C16         -2.3631     1.8830     0.0236 C.ar         1    LIG   0.0000
  17 H            3.4597     0.3870     1.7091 H            1    LIG   0.0000
  18 H            1.8083     2.8733     1.8155 H            1    LIG   0.0000
  19 H            5.1306     1.8195     2.6788 H            1    LIG   0.0000
  20 H            4.3714     2.8886     1.7055 H            1    LIG   0.0000
  21 H            3.9800     2.8048     3.2887 H            1    LIG   0.0000
  22 H            1.6518     0.3703     3.4353 H            1    LIG   0.0000
  23 H            2.2059     1.7866     4.0301 H            1    LIG   0.0000
  24 H            1.2311     1.1524     0.0391 H            1    LIG   0.0000
  25 H            1.1524     0.0391     1.2311 H            1    LIG   0.0000
  26 H            0.7264     2.7722    -0.6559 H            1    LIG   0.0000
  27 H           -0.3717     3.8696    -2.4556 H            1    LIG   0.0000
  28 H           -2.9072     1.3570     0.6772 H            1    LIG   0.0000
@<TRIPOS>BOND
   1        1        2 1
   2        2        3 1
   3        3        4 1
   4        4        2 1
   5        4        5 1
   6        5        6 1
   7        6        7 1
   8        7        8 ar
   9        8        9 ar
  10        9       10 ar
  11       10       11 1
  12       11       12 1
  13       12       13 2
  14       12       14 1
  15       14       15 1
  16       15       10 ar
  17       15       16 ar
  18       16        7 ar
  19        2       17 1
  20        4       18 1
  21        1       19 1
  22        1       20 1
  23        1       21 1
  24        3       22 1
  25        3       23 1
  26        5       24 1
  27        5       25 1
  28        8       26 1
  29        9       27 1
  30       16       28 1

