@<TRIPOS>MOLECULE
*****
 28 30 0 0 0
SMALL
USER_CHARGES

@<TRIPOS>ATOM
      1 C1          3.9077    3.3219    1.7958 C.3     1  LIG1        0.0000
      2 C2          3.2596    2.0377    1.3127 C.3     1  LIG1        0.0000
      3 C3          3.0170    1.0856    2.4471 C.3     1  LIG1        0.0000
      4 C4          1.8776    1.8776    1.8776 C.3     1  LIG1        0.0000
      5 C5          1.0000    1.0000    1.0000 C.3     1  LIG1        0.0000
      6 O6         -0.3645    1.3282    1.2164 O.2     1  LIG1        0.0000
      7 C7         -1.1422    1.3487    0.1079 C.3     1  LIG1        0.0000
      8 C8         -2.3029    2.1130    0.0506 C.3     1  LIG1        0.0000
      9 C9         -3.0975    2.1293   -1.0914 C.3     1  LIG1        0.0000
     10 C10        -2.7518    1.3795   -2.2107 C.3     1  LIG1        0.0000
     11 O11        -3.2934    1.2044   -3.3954 O.3     1  LIG1        0.0000
     12 C12        -2.5240    0.3739   -4.0610 C.2     1  LIG1        0.0000
     13 O13        -2.7300   -0.0102   -5.2012 O.2     1  LIG1        0.0000
     14 O14        -1.4996    0.0166   -3.3203 O.3     1  LIG1        0.0000
     15 C15        -1.6083    0.6237   -2.1607 C.3     1  LIG1        0.0000
     16 C16        -0.8107    0.6044   -1.0201 C.3     1  LIG1        0.0000
     17 H           3.4702    1.6846    0.4012 H       1  LIG1        0.0000
     18 H           1.4681    2.6174    2.4116 H       1  LIG1        0.0000
     19 H           4.8245    3.4005    1.4040 H       1  LIG1        0.0000
     20 H           3.3542    4.1034    1.5080 H       1  LIG1        0.0000
     21 H           3.9718    3.3081    2.7936 H       1  LIG1        0.0000
     22 H           3.0672    0.0991    2.2912 H       1  LIG1        0.0000
     23 H           3.3655    1.2969    3.3603 H       1  LIG1        0.0000
     24 H           1.2311    1.1524    0.0391 H       1  LIG1        0.0000
     25 H           1.1524    0.0391    1.2311 H       1  LIG1        0.0000
     26 H          -2.5709    2.6600    0.8437 H       1  LIG1        0.0000
     27 H          -3.9274    2.6870   -1.1077 H       1  LIG1        0.0000
     28 H           0.0175    0.0442   -1.0112 H       1  LIG1        0.0000
@<TRIPOS>BOND
     1     1     2    1
     2     2     3    1
     3     3     4    1
     4     4     2    1
     5     4     5    1
     6     5     6    1
     7     6     7    1
     8     7     8   ar
     9     8     9   ar
    10     9    10   ar
    11    10    11    1
    12    11    12    1
    13    12    13    2
    14    12    14    1
    15    14    15    1
    16    15    10   ar
    17    15    16   ar
    18    16     7   ar
    19     2    17    1
    20     4    18    1
    21     1    19    1
    22     1    20    1
    23     1    21    1
    24     3    22    1
    25     3    23    1
    26     5    24    1
    27     5    25    1
    28     8    26    1
    29     9    27    1
    30    16    28    1
