@<TRIPOS>MOLECULE
*****
 28 30 0 0 0
SMALL
USER_CHARGES

@<TRIPOS>ATOM
      1 C1          4.2615    2.2758    2.4881 C.3     1  LIG1        0.0000
      2 C2          3.2029    1.2358    2.1713 C.3     1  LIG1        0.0000
      3 C3          2.1170    1.2257    3.2071 C.3     1  LIG1        0.0000
      4 C4          1.8776    1.8776    1.8776 C.3     1  LIG1        0.0000
      5 C5          1.0000    1.0000    1.0000 C.3     1  LIG1        0.0000
      6 O6         -0.3645    1.3282    1.2164 O.2     1  LIG1        0.0000
      7 C7         -0.9833    1.9559    0.1883 C.3     1  LIG1        0.0000
      8 C8         -0.2669    2.6988   -0.7443 C.3     1  LIG1        0.0000
      9 C9         -0.9091    3.3414   -1.7982 C.3     1  LIG1        0.0000
     10 C10        -2.2893    3.2583   -1.9486 C.3     1  LIG1        0.0000
     11 O11        -3.1439    3.7455   -2.8202 O.3     1  LIG1        0.0000
     12 C12        -4.3416    3.3390   -2.4666 C.2     1  LIG1        0.0000
     13 O13        -5.3751    3.6083   -3.0576 O.2     1  LIG1        0.0000
     14 O14        -4.2651    2.5994   -1.3836 O.3     1  LIG1        0.0000
     15 C15        -3.0015    2.5272   -1.0322 C.3     1  LIG1        0.0000
     16 C16        -2.3631    1.8830    0.0236 C.3     1  LIG1        0.0000
     17 H           3.4597    0.3870    1.7091 H       1  LIG1        0.0000
     18 H           1.8083    2.8733    1.8155 H       1  LIG1        0.0000
     19 H           5.1306    1.8195    2.6788 H       1  LIG1        0.0000
     20 H           4.3714    2.8886    1.7055 H       1  LIG1        0.0000
     21 H           3.9800    2.8048    3.2887 H       1  LIG1        0.0000
     22 H           1.6518    0.3703    3.4353 H       1  LIG1        0.0000
     23 H           2.2059    1.7866    4.0301 H       1  LIG1        0.0000
     24 H           1.2311    1.1524    0.0391 H       1  LIG1        0.0000
     25 H           1.1524    0.0391    1.2311 H       1  LIG1        0.0000
     26 H           0.7264    2.7722   -0.6559 H       1  LIG1        0.0000
     27 H          -0.3717    3.8696   -2.4556 H       1  LIG1        0.0000
     28 H          -2.9072    1.3570    0.6772 H       1  LIG1        0.0000
@<TRIPOS>BOND
     1     1     2    1
     2     2     3    1
     3     3     4    1
     4     4     2    1
     5     4     5    1
     6     5     6    1
     7     6     7    1
     8     7     8   ar
     9     8     9   ar
    10     9    10   ar
    11    10    11    1
    12    11    12    1
    13    12    13    2
    14    12    14    1
    15    14    15    1
    16    15    10   ar
    17    15    16   ar
    18    16     7   ar
    19     2    17    1
    20     4    18    1
    21     1    19    1
    22     1    20    1
    23     1    21    1
    24     3    22    1
    25     3    23    1
    26     5    24    1
    27     5    25    1
    28     8    26    1
    29     9    27    1
    30    16    28    1
