@<TRIPOS>MOLECULE
*****
 28 30 0 0 0
SMALL
USER_CHARGES

@<TRIPOS>ATOM
      1 C1          3.9077    3.3219    1.7958 C.3     1  LIG1        0.0000
      2 C2          3.2596    2.0377    1.3127 C.3     1  LIG1        0.0000
      3 C3          3.0170    1.0856    2.4471 C.3     1  LIG1        0.0000
      4 C4          1.8776    1.8776    1.8776 C.3     1  LIG1        0.0000
      5 C5          1.0000    1.0000    1.0000 C.3     1  LIG1        0.0000
      6 O6         -0.3645    1.3282    1.2164 O.2     1  LIG1        0.0000
      7 C7         -1.2177    0.9507    0.2348 C.3     1  LIG1        0.0000
      8 C8         -0.9218   -0.1102   -0.6147 C.3     1  LIG1        0.0000
      9 C9         -1.8028   -0.4926   -1.6214 C.3     1  LIG1        0.0000
     10 C10        -3.0075    0.1775   -1.8064 C.3     1  LIG1        0.0000
     11 O11        -4.0072    0.0430   -2.6490 O.3     1  LIG1        0.0000
     12 C12        -4.8946    0.9661   -2.3574 C.2     1  LIG1        0.0000
     13 O13        -5.9525    1.1303   -2.9438 O.2     1  LIG1        0.0000
     14 O14        -4.4777    1.6871   -1.3416 O.3     1  LIG1        0.0000
     15 C15        -3.3053    1.2245   -0.9719 C.3     1  LIG1        0.0000
     16 C16        -2.4267    1.6105    0.0362 C.3     1  LIG1        0.0000
     17 H           3.4702    1.6846    0.4012 H       1  LIG1        0.0000
     18 H           1.4681    2.6174    2.4116 H       1  LIG1        0.0000
     19 H           4.8245    3.4005    1.4040 H       1  LIG1        0.0000
     20 H           3.3542    4.1034    1.5080 H       1  LIG1        0.0000
     21 H           3.9718    3.3081    2.7936 H       1  LIG1        0.0000
     22 H           3.0672    0.0991    2.2912 H       1  LIG1        0.0000
     23 H           3.3655    1.2969    3.3603 H       1  LIG1        0.0000
     24 H           1.2311    1.1524    0.0391 H       1  LIG1        0.0000
     25 H           1.1524    0.0391    1.2311 H       1  LIG1        0.0000
     26 H          -0.0612   -0.6064   -0.5000 H       1  LIG1        0.0000
     27 H          -1.5669   -1.2587   -2.2193 H       1  LIG1        0.0000
     28 H          -2.6692    2.3777    0.6300 H       1  LIG1        0.0000
@<TRIPOS>BOND
     1     1     2    1
     2     2     3    1
     3     3     4    1
     4     4     2    1
     5     4     5    1
     6     5     6    1
     7     6     7    1
     8     7     8   ar
     9     8     9   ar
    10     9    10   ar
    11    10    11    1
    12    11    12    1
    13    12    13    2
    14    12    14    1
    15    14    15    1
    16    15    10   ar
    17    15    16   ar
    18    16     7   ar
    19     2    17    1
    20     4    18    1
    21     1    19    1
    22     1    20    1
    23     1    21    1
    24     3    22    1
    25     3    23    1
    26     5    24    1
    27     5    25    1
    28     8    26    1
    29     9    27    1
    30    16    28    1
