@<TRIPOS>MOLECULE
*****
 28 30 0 0 0
SMALL
USER_CHARGES

@<TRIPOS>ATOM
      1 C1          4.1959    2.7772    2.0523 C.3     1  LIG1        0.0000
      2 C2          3.3375    1.5782    1.6943 C.3     1  LIG1        0.0000
      3 C3          2.6066    1.0494    2.8937 C.3     1  LIG1        0.0000
      4 C4          1.8776    1.8776    1.8776 C.3     1  LIG1        0.0000
      5 C5          1.0000    1.0000    1.0000 C.3     1  LIG1        0.0000
      6 O6         -0.3645    1.3282    1.2164 O.2     1  LIG1        0.0000
      7 C7         -1.2580    0.6145    0.4909 C.3     1  LIG1        0.0000
      8 C8         -2.6266    0.8346    0.6066 C.3     1  LIG1        0.0000
      9 C9         -3.5391    0.0976   -0.1417 C.3     1  LIG1        0.0000
     10 C10        -3.1067   -0.8825   -1.0287 C.3     1  LIG1        0.0000
     11 O11        -3.7200   -1.7114   -1.8437 O.3     1  LIG1        0.0000
     12 C12        -2.7971   -2.4241   -2.4480 C.2     1  LIG1        0.0000
     13 O13        -3.0149   -3.2948   -3.2752 O.2     1  LIG1        0.0000
     14 O14        -1.6045   -2.0628   -2.0323 O.3     1  LIG1        0.0000
     15 C15        -1.7583   -1.1043   -1.1475 C.3     1  LIG1        0.0000
     16 C16        -0.8420   -0.3695   -0.4007 C.3     1  LIG1        0.0000
     17 H           3.6317    0.9514    0.9728 H       1  LIG1        0.0000
     18 H           1.5837    2.8053    2.1082 H       1  LIG1        0.0000
     19 H           5.1603    2.5480    1.9206 H       1  LIG1        0.0000
     20 H           3.9532    3.5485    1.4639 H       1  LIG1        0.0000
     21 H           4.0398    3.0253    3.0084 H       1  LIG1        0.0000
     22 H           2.4154    0.0709    2.9712 H       1  LIG1        0.0000
     23 H           2.7972    1.4247    3.8008 H       1  LIG1        0.0000
     24 H           1.2311    1.1524    0.0391 H       1  LIG1        0.0000
     25 H           1.1524    0.0391    1.2311 H       1  LIG1        0.0000
     26 H          -2.9602    1.5344    1.2382 H       1  LIG1        0.0000
     27 H          -4.5181    0.2747   -0.0404 H       1  LIG1        0.0000
     28 H           0.1353   -0.5524   -0.5071 H       1  LIG1        0.0000
@<TRIPOS>BOND
     1     1     2    1
     2     2     3    1
     3     3     4    1
     4     4     2    1
     5     4     5    1
     6     5     6    1
     7     6     7    1
     8     7     8   ar
     9     8     9   ar
    10     9    10   ar
    11    10    11    1
    12    11    12    1
    13    12    13    2
    14    12    14    1
    15    14    15    1
    16    15    10   ar
    17    15    16   ar
    18    16     7   ar
    19     2    17    1
    20     4    18    1
    21     1    19    1
    22     1    20    1
    23     1    21    1
    24     3    22    1
    25     3    23    1
    26     5    24    1
    27     5    25    1
    28     8    26    1
    29     9    27    1
    30    16    28    1
