@<TRIPOS>MOLECULE

  22   23
SMALL
USER_CHARGES
@<TRIPOS>ATOM
   1 C1           3.7226    -0.7135    -0.0371 C.3          1    LIG   0.0000
   2 C2           2.3938     0.0235    -0.0212 C.ar         1    LIG   0.0000
   3 C3           1.2034    -0.6965    -0.0136 C.ar         1    LIG   0.0000
   4 C4          -0.0116    -0.0196     0.0017 C.ar         1    LIG   0.0000
   5 C5          -0.0205     1.3714     0.0097 C.ar         1    LIG   0.0000
   6 Cl6         -1.5701     2.2470     0.0290 Cl           1    LIG   0.0000
   7 C7           1.1736     2.0854     0.0017 C.ar         1    LIG   0.0000
   8 O8           1.1526     3.4354     0.0095 O.3          1    LIG   0.0000
   9 C9           2.3607     4.0349     0.0014 C.2          1    LIG   0.0000
  10 N10          3.0619     4.3932    -1.0479 N.2          1    LIG   0.0000
  11 C11          4.2674     4.9903    -0.7810 C.2          1    LIG   0.0000
  12 Cl12         5.4166     5.5812    -2.0017 Cl           1    LIG   0.0000
  13 C13          4.5894     5.1385     0.5362 C.2          1    LIG   0.0000
  14 S14          3.2676     4.4707     1.3736 S.3          1    LIG   0.0000
  15 C15          2.3915     1.4143    -0.0136 C.ar         1    LIG   0.0000
  16 H            3.5568    -1.6997    -0.0410 H            1    LIG   0.0000
  17 H            4.2354    -0.4585    -0.8569 H            1    LIG   0.0000
  18 H            4.2500    -0.4674     0.7760 H            1    LIG   0.0000
  19 H            1.2212    -1.6963    -0.0191 H            1    LIG   0.0000
  20 H           -0.8722    -0.5290     0.0069 H            1    LIG   0.0000
  21 H            5.4160     5.5476     0.9226 H            1    LIG   0.0000
  22 H            3.2521     1.9237    -0.0191 H            1    LIG   0.0000
@<TRIPOS>BOND
   1        1        2 1
   2        2        3 ar
   3        3        4 ar
   4        4        5 ar
   5        5        6 1
   6        5        7 ar
   7        7        8 1
   8        8        9 1
   9        9       10 2
  10       10       11 1
  11       11       12 1
  12       11       13 2
  13       13       14 1
  14       14        9 1
  15        7       15 ar
  16       15        2 ar
  17        1       16 1
  18        1       17 1
  19        1       18 1
  20        3       19 1
  21        4       20 1
  22       13       21 1
  23       15       22 1

@<TRIPOS>MOLECULE

  22   23
SMALL
USER_CHARGES
@<TRIPOS>ATOM
   1 C1           3.7226    -0.7135    -0.0371 C.3          1    LIG   0.0000
   2 C2           2.3938     0.0235    -0.0212 C.ar         1    LIG   0.0000
   3 C3           1.2034    -0.6965    -0.0136 C.ar         1    LIG   0.0000
   4 C4          -0.0116    -0.0196     0.0017 C.ar         1    LIG   0.0000
   5 C5          -0.0205     1.3714     0.0097 C.ar         1    LIG   0.0000
   6 Cl6         -1.5701     2.2470     0.0290 Cl           1    LIG   0.0000
   7 C7           1.1736     2.0854     0.0017 C.ar         1    LIG   0.0000
   8 O8           1.1526     3.4354     0.0095 O.3          1    LIG   0.0000
   9 C9           2.3607     4.0349     0.0014 C.2          1    LIG   0.0000
  10 N10          3.0813     4.3822     1.0412 N.2          1    LIG   0.0000
  11 C11          4.2830     4.9798     0.7581 C.2          1    LIG   0.0000
  12 Cl12         5.4617     5.5441     1.9632 Cl           1    LIG   0.0000
  13 C13          4.5815     5.1395    -0.5633 C.2          1    LIG   0.0000
  14 S14          3.2414     4.4862    -1.3828 S.3          1    LIG   0.0000
  15 C15          2.3915     1.4143    -0.0136 C.ar         1    LIG   0.0000
  16 H            3.5568    -1.6997    -0.0410 H            1    LIG   0.0000
  17 H            4.2354    -0.4585    -0.8569 H            1    LIG   0.0000
  18 H            4.2500    -0.4674     0.7760 H            1    LIG   0.0000
  19 H            1.2212    -1.6963    -0.0191 H            1    LIG   0.0000
  20 H           -0.8722    -0.5290     0.0069 H            1    LIG   0.0000
  21 H            5.4030     5.5483    -0.9607 H            1    LIG   0.0000
  22 H            3.2521     1.9237    -0.0191 H            1    LIG   0.0000
@<TRIPOS>BOND
   1        1        2 1
   2        2        3 ar
   3        3        4 ar
   4        4        5 ar
   5        5        6 1
   6        5        7 ar
   7        7        8 1
   8        8        9 1
   9        9       10 2
  10       10       11 1
  11       11       12 1
  12       11       13 2
  13       13       14 1
  14       14        9 1
  15        7       15 ar
  16       15        2 ar
  17        1       16 1
  18        1       17 1
  19        1       18 1
  20        3       19 1
  21        4       20 1
  22       13       21 1
  23       15       22 1

@<TRIPOS>MOLECULE

  22   23
SMALL
USER_CHARGES
@<TRIPOS>ATOM
   1 C1           3.7226    -0.7135    -0.0371 C.3          1    LIG   0.0000
   2 C2           2.3938     0.0235    -0.0212 C.ar         1    LIG   0.0000
   3 C3           1.2034    -0.6965    -0.0136 C.ar         1    LIG   0.0000
   4 C4          -0.0116    -0.0196     0.0017 C.ar         1    LIG   0.0000
   5 C5          -0.0205     1.3714     0.0097 C.ar         1    LIG   0.0000
   6 Cl6         -1.5701     2.2470     0.0290 Cl           1    LIG   0.0000
   7 C7           1.1736     2.0854     0.0017 C.ar         1    LIG   0.0000
   8 O8           1.1526     3.4354     0.0095 O.3          1    LIG   0.0000
   9 C9           1.9960     4.0342    -0.8560 C.2          1    LIG   0.0000
  10 N10          2.8222     3.4506    -1.6914 N.2          1    LIG   0.0000
  11 C11          3.5747     4.2935    -2.4688 C.2          1    LIG   0.0000
  12 Cl12         4.7648     3.7835    -3.6867 Cl           1    LIG   0.0000
  13 C13          3.3737     5.6295    -2.2801 C.2          1    LIG   0.0000
  14 S14          2.1852     5.7122    -1.0657 S.3          1    LIG   0.0000
  15 C15          2.3915     1.4143    -0.0136 C.ar         1    LIG   0.0000
  16 H            3.5568    -1.6997    -0.0410 H            1    LIG   0.0000
  17 H            4.2354    -0.4585    -0.8569 H            1    LIG   0.0000
  18 H            4.2500    -0.4674     0.7760 H            1    LIG   0.0000
  19 H            1.2212    -1.6963    -0.0191 H            1    LIG   0.0000
  20 H           -0.8722    -0.5290     0.0069 H            1    LIG   0.0000
  21 H            3.8235     6.3891    -2.7498 H            1    LIG   0.0000
  22 H            3.2521     1.9237    -0.0191 H            1    LIG   0.0000
@<TRIPOS>BOND
   1        1        2 1
   2        2        3 ar
   3        3        4 ar
   4        4        5 ar
   5        5        6 1
   6        5        7 ar
   7        7        8 1
   8        8        9 1
   9        9       10 2
  10       10       11 1
  11       11       12 1
  12       11       13 2
  13       13       14 1
  14       14        9 1
  15        7       15 ar
  16       15        2 ar
  17        1       16 1
  18        1       17 1
  19        1       18 1
  20        3       19 1
  21        4       20 1
  22       13       21 1
  23       15       22 1

@<TRIPOS>MOLECULE

  22   23
SMALL
USER_CHARGES
@<TRIPOS>ATOM
   1 C1           3.7226    -0.7135    -0.0371 C.3          1    LIG   0.0000
   2 C2           2.3938     0.0235    -0.0212 C.ar         1    LIG   0.0000
   3 C3           1.2034    -0.6965    -0.0136 C.ar         1    LIG   0.0000
   4 C4          -0.0116    -0.0196     0.0017 C.ar         1    LIG   0.0000
   5 C5          -0.0205     1.3714     0.0097 C.ar         1    LIG   0.0000
   6 Cl6         -1.5701     2.2470     0.0290 Cl           1    LIG   0.0000
   7 C7           1.1736     2.0854     0.0017 C.ar         1    LIG   0.0000
   8 O8           1.1526     3.4354     0.0095 O.3          1    LIG   0.0000
   9 C9           1.9960     4.0342    -0.8560 C.2          1    LIG   0.0000
  10 N10          2.1625     5.3225    -1.0392 N.2          1    LIG   0.0000
  11 C11          3.0905     5.6728    -1.9863 C.2          1    LIG   0.0000
  12 Cl12         3.5256     7.3366    -2.4360 Cl           1    LIG   0.0000
  13 C13          3.7248     4.6444    -2.6195 C.2          1    LIG   0.0000
  14 S14          3.0549     3.2423    -1.9270 S.3          1    LIG   0.0000
  15 C15          2.3915     1.4143    -0.0136 C.ar         1    LIG   0.0000
  16 H            3.5568    -1.6997    -0.0410 H            1    LIG   0.0000
  17 H            4.2354    -0.4585    -0.8569 H            1    LIG   0.0000
  18 H            4.2500    -0.4674     0.7760 H            1    LIG   0.0000
  19 H            1.2212    -1.6963    -0.0191 H            1    LIG   0.0000
  20 H           -0.8722    -0.5290     0.0069 H            1    LIG   0.0000
  21 H            4.4256     4.7017    -3.3306 H            1    LIG   0.0000
  22 H            3.2521     1.9237    -0.0191 H            1    LIG   0.0000
@<TRIPOS>BOND
   1        1        2 1
   2        2        3 ar
   3        3        4 ar
   4        4        5 ar
   5        5        6 1
   6        5        7 ar
   7        7        8 1
   8        8        9 1
   9        9       10 2
  10       10       11 1
  11       11       12 1
  12       11       13 2
  13       13       14 1
  14       14        9 1
  15        7       15 ar
  16       15        2 ar
  17        1       16 1
  18        1       17 1
  19        1       18 1
  20        3       19 1
  21        4       20 1
  22       13       21 1
  23       15       22 1

@<TRIPOS>MOLECULE

  22   23
SMALL
USER_CHARGES
@<TRIPOS>ATOM
   1 C1           3.7226    -0.7135    -0.0371 C.3          1    LIG   0.0000
   2 C2           2.3938     0.0235    -0.0212 C.ar         1    LIG   0.0000
   3 C3           1.2034    -0.6965    -0.0136 C.ar         1    LIG   0.0000
   4 C4          -0.0116    -0.0196     0.0017 C.ar         1    LIG   0.0000
   5 C5          -0.0205     1.3714     0.0097 C.ar         1    LIG   0.0000
   6 Cl6         -1.5701     2.2470     0.0290 Cl           1    LIG   0.0000
   7 C7           1.1736     2.0854     0.0017 C.ar         1    LIG   0.0000
   8 O8           1.1526     3.4354     0.0095 O.3          1    LIG   0.0000
   9 C9           2.0124     4.0245     0.8655 C.2          1    LIG   0.0000
  10 N10          2.8537     3.4317     1.6790 N.2          1    LIG   0.0000
  11 C11          3.6229     4.2659     2.4493 C.2          1    LIG   0.0000
  12 Cl12         4.8461     3.7426     3.6283 Cl           1    LIG   0.0000
  13 C13          3.4211     5.6039     2.2768 C.2          1    LIG   0.0000
  14 S14          2.2057     5.7000     1.0904 S.3          1    LIG   0.0000
  15 C15          2.3915     1.4143    -0.0136 C.ar         1    LIG   0.0000
  16 H            3.5568    -1.6997    -0.0410 H            1    LIG   0.0000
  17 H            4.2354    -0.4585    -0.8569 H            1    LIG   0.0000
  18 H            4.2500    -0.4674     0.7760 H            1    LIG   0.0000
  19 H            1.2212    -1.6963    -0.0191 H            1    LIG   0.0000
  20 H           -0.8722    -0.5290     0.0069 H            1    LIG   0.0000
  21 H            3.8835     6.3583     2.7427 H            1    LIG   0.0000
  22 H            3.2521     1.9237    -0.0191 H            1    LIG   0.0000
@<TRIPOS>BOND
   1        1        2 1
   2        2        3 ar
   3        3        4 ar
   4        4        5 ar
   5        5        6 1
   6        5        7 ar
   7        7        8 1
   8        8        9 1
   9        9       10 2
  10       10       11 1
  11       11       12 1
  12       11       13 2
  13       13       14 1
  14       14        9 1
  15        7       15 ar
  16       15        2 ar
  17        1       16 1
  18        1       17 1
  19        1       18 1
  20        3       19 1
  21        4       20 1
  22       13       21 1
  23       15       22 1

@<TRIPOS>MOLECULE

  22   23
SMALL
USER_CHARGES
@<TRIPOS>ATOM
   1 C1           3.7226    -0.7135    -0.0371 C.3          1    LIG   0.0000
   2 C2           2.3938     0.0235    -0.0212 C.ar         1    LIG   0.0000
   3 C3           1.2034    -0.6965    -0.0136 C.ar         1    LIG   0.0000
   4 C4          -0.0116    -0.0196     0.0017 C.ar         1    LIG   0.0000
   5 C5          -0.0205     1.3714     0.0097 C.ar         1    LIG   0.0000
   6 Cl6         -1.5701     2.2470     0.0290 Cl           1    LIG   0.0000
   7 C7           1.1736     2.0854     0.0017 C.ar         1    LIG   0.0000
   8 O8           1.1526     3.4354     0.0095 O.3          1    LIG   0.0000
   9 C9           2.0124     4.0245     0.8655 C.2          1    LIG   0.0000
  10 N10          2.1830     5.3107     1.0594 N.2          1    LIG   0.0000
  11 C11          3.1269     5.6504     1.9947 C.2          1    LIG   0.0000
  12 Cl12         3.5605     7.3089     2.4651 Cl           1    LIG   0.0000
  13 C13          3.7703     4.6149     2.6068 C.2          1    LIG   0.0000
  14 S14          3.0913     3.2208     1.9072 S.3          1    LIG   0.0000
  15 C15          2.3915     1.4143    -0.0136 C.ar         1    LIG   0.0000
  16 H            3.5568    -1.6997    -0.0410 H            1    LIG   0.0000
  17 H            4.2354    -0.4585    -0.8569 H            1    LIG   0.0000
  18 H            4.2500    -0.4674     0.7760 H            1    LIG   0.0000
  19 H            1.2212    -1.6963    -0.0191 H            1    LIG   0.0000
  20 H           -0.8722    -0.5290     0.0069 H            1    LIG   0.0000
  21 H            4.4809     4.6643     3.3086 H            1    LIG   0.0000
  22 H            3.2521     1.9237    -0.0191 H            1    LIG   0.0000
@<TRIPOS>BOND
   1        1        2 1
   2        2        3 ar
   3        3        4 ar
   4        4        5 ar
   5        5        6 1
   6        5        7 ar
   7        7        8 1
   8        8        9 1
   9        9       10 2
  10       10       11 1
  11       11       12 1
  12       11       13 2
  13       13       14 1
  14       14        9 1
  15        7       15 ar
  16       15        2 ar
  17        1       16 1
  18        1       17 1
  19        1       18 1
  20        3       19 1
  21        4       20 1
  22       13       21 1
  23       15       22 1

@<TRIPOS>MOLECULE

  22   23
SMALL
USER_CHARGES
@<TRIPOS>ATOM
   1 C1           3.7226    -0.7135    -0.0371 C.3          1    LIG   0.0000
   2 C2           2.3938     0.0235    -0.0212 C.ar         1    LIG   0.0000
   3 C3           1.2034    -0.6965    -0.0136 C.ar         1    LIG   0.0000
   4 C4          -0.0116    -0.0196     0.0017 C.ar         1    LIG   0.0000
   5 C5          -0.0205     1.3714     0.0097 C.ar         1    LIG   0.0000
   6 Cl6         -1.5701     2.2470     0.0290 Cl           1    LIG   0.0000
   7 C7           1.1736     2.0854     0.0017 C.ar         1    LIG   0.0000
   8 O8           1.1526     3.4354     0.0095 O.3          1    LIG   0.0000
   9 C9           1.1320     4.0228    -1.2044 C.2          1    LIG   0.0000
  10 N10          0.0754     4.3517    -1.9091 N.2          1    LIG   0.0000
  11 C11          0.3298     4.9425    -3.1204 C.2          1    LIG   0.0000
  12 Cl12        -0.9029     5.4961    -4.2753 Cl           1    LIG   0.0000
  13 C13          1.6437     5.1157    -3.4437 C.2          1    LIG   0.0000
  14 S14          2.4948     4.4789    -2.1155 S.3          1    LIG   0.0000
  15 C15          2.3915     1.4143    -0.0136 C.ar         1    LIG   0.0000
  16 H            3.5568    -1.6997    -0.0410 H            1    LIG   0.0000
  17 H            4.2354    -0.4585    -0.8569 H            1    LIG   0.0000
  18 H            4.2500    -0.4674     0.7760 H            1    LIG   0.0000
  19 H            1.2212    -1.6963    -0.0191 H            1    LIG   0.0000
  20 H           -0.8722    -0.5290     0.0069 H            1    LIG   0.0000
  21 H            2.0214     5.5248    -4.2744 H            1    LIG   0.0000
  22 H            3.2521     1.9237    -0.0191 H            1    LIG   0.0000
@<TRIPOS>BOND
   1        1        2 1
   2        2        3 ar
   3        3        4 ar
   4        4        5 ar
   5        5        6 1
   6        5        7 ar
   7        7        8 1
   8        8        9 1
   9        9       10 2
  10       10       11 1
  11       11       12 1
  12       11       13 2
  13       13       14 1
  14       14        9 1
  15        7       15 ar
  16       15        2 ar
  17        1       16 1
  18        1       17 1
  19        1       18 1
  20        3       19 1
  21        4       20 1
  22       13       21 1
  23       15       22 1

@<TRIPOS>MOLECULE

  22   23
SMALL
USER_CHARGES
@<TRIPOS>ATOM
   1 C1           3.7226    -0.7135    -0.0371 C.3          1    LIG   0.0000
   2 C2           2.3938     0.0235    -0.0212 C.ar         1    LIG   0.0000
   3 C3           1.2034    -0.6965    -0.0136 C.ar         1    LIG   0.0000
   4 C4          -0.0116    -0.0196     0.0017 C.ar         1    LIG   0.0000
   5 C5          -0.0205     1.3714     0.0097 C.ar         1    LIG   0.0000
   6 Cl6         -1.5701     2.2470     0.0290 Cl           1    LIG   0.0000
   7 C7           1.1736     2.0854     0.0017 C.ar         1    LIG   0.0000
   8 O8           1.1526     3.4354     0.0095 O.3          1    LIG   0.0000
   9 C9           1.1320     4.0228    -1.2044 C.2          1    LIG   0.0000
  10 N10          2.1643     4.3851    -1.9284 N.2          1    LIG   0.0000
  11 C11          1.8689     4.9647    -3.1358 C.2          1    LIG   0.0000
  12 Cl12         3.0619     5.5430    -4.3199 Cl           1    LIG   0.0000
  13 C13          0.5444     5.0933    -3.4359 C.2          1    LIG   0.0000
  14 S14         -0.2613     4.4359    -2.0895 S.3          1    LIG   0.0000
  15 C15          2.3915     1.4143    -0.0136 C.ar         1    LIG   0.0000
  16 H            3.5568    -1.6997    -0.0410 H            1    LIG   0.0000
  17 H            4.2354    -0.4585    -0.8569 H            1    LIG   0.0000
  18 H            4.2500    -0.4674     0.7760 H            1    LIG   0.0000
  19 H            1.2212    -1.6963    -0.0191 H            1    LIG   0.0000
  20 H           -0.8722    -0.5290     0.0069 H            1    LIG   0.0000
  21 H            0.1386     5.4855    -4.2614 H            1    LIG   0.0000
  22 H            3.2521     1.9237    -0.0191 H            1    LIG   0.0000
@<TRIPOS>BOND
   1        1        2 1
   2        2        3 ar
   3        3        4 ar
   4        4        5 ar
   5        5        6 1
   6        5        7 ar
   7        7        8 1
   8        8        9 1
   9        9       10 2
  10       10       11 1
  11       11       12 1
  12       11       13 2
  13       13       14 1
  14       14        9 1
  15        7       15 ar
  16       15        2 ar
  17        1       16 1
  18        1       17 1
  19        1       18 1
  20        3       19 1
  21        4       20 1
  22       13       21 1
  23       15       22 1

@<TRIPOS>MOLECULE

  22   23
SMALL
USER_CHARGES
@<TRIPOS>ATOM
   1 C1           3.7226    -0.7135    -0.0371 C.3          1    LIG   0.0000
   2 C2           2.3938     0.0235    -0.0212 C.ar         1    LIG   0.0000
   3 C3           1.2034    -0.6965    -0.0136 C.ar         1    LIG   0.0000
   4 C4          -0.0116    -0.0196     0.0017 C.ar         1    LIG   0.0000
   5 C5          -0.0205     1.3714     0.0097 C.ar         1    LIG   0.0000
   6 Cl6         -1.5701     2.2470     0.0290 Cl           1    LIG   0.0000
   7 C7           1.1736     2.0854     0.0017 C.ar         1    LIG   0.0000
   8 O8           1.1526     3.4354     0.0095 O.3          1    LIG   0.0000
   9 C9           0.2747     4.0073    -0.8398 C.2          1    LIG   0.0000
  10 N10         -0.2792     3.4606    -1.8958 N.2          1    LIG   0.0000
  11 C11         -1.1449     4.2625    -2.5948 C.2          1    LIG   0.0000
  12 Cl12        -2.0399     3.7852    -4.0546 Cl           1    LIG   0.0000
  13 C13         -1.3243     5.5246    -2.1094 C.2          1    LIG   0.0000
  14 S14         -0.3251     5.5962    -0.7344 S.3          1    LIG   0.0000
  15 C15          2.3915     1.4143    -0.0136 C.ar         1    LIG   0.0000
  16 H            3.5568    -1.6997    -0.0410 H            1    LIG   0.0000
  17 H            4.2354    -0.4585    -0.8569 H            1    LIG   0.0000
  18 H            4.2500    -0.4674     0.7760 H            1    LIG   0.0000
  19 H            1.2212    -1.6963    -0.0191 H            1    LIG   0.0000
  20 H           -0.8722    -0.5290     0.0069 H            1    LIG   0.0000
  21 H           -1.9109     6.2454    -2.4787 H            1    LIG   0.0000
  22 H            3.2521     1.9237    -0.0191 H            1    LIG   0.0000
@<TRIPOS>BOND
   1        1        2 1
   2        2        3 ar
   3        3        4 ar
   4        4        5 ar
   5        5        6 1
   6        5        7 ar
   7        7        8 1
   8        8        9 1
   9        9       10 2
  10       10       11 1
  11       11       12 1
  12       11       13 2
  13       13       14 1
  14       14        9 1
  15        7       15 ar
  16       15        2 ar
  17        1       16 1
  18        1       17 1
  19        1       18 1
  20        3       19 1
  21        4       20 1
  22       13       21 1
  23       15       22 1

@<TRIPOS>MOLECULE

  22   23
SMALL
USER_CHARGES
@<TRIPOS>ATOM
   1 C1           3.7226    -0.7135    -0.0371 C.3          1    LIG   0.0000
   2 C2           2.3938     0.0235    -0.0212 C.ar         1    LIG   0.0000
   3 C3           1.2034    -0.6965    -0.0136 C.ar         1    LIG   0.0000
   4 C4          -0.0116    -0.0196     0.0017 C.ar         1    LIG   0.0000
   5 C5          -0.0205     1.3714     0.0097 C.ar         1    LIG   0.0000
   6 Cl6         -1.5701     2.2470     0.0290 Cl           1    LIG   0.0000
   7 C7           1.1736     2.0854     0.0017 C.ar         1    LIG   0.0000
   8 O8           1.1526     3.4354     0.0095 O.3          1    LIG   0.0000
   9 C9           0.2747     4.0073    -0.8398 C.2          1    LIG   0.0000
  10 N10         -0.8247     4.6523    -0.5294 N.2          1    LIG   0.0000
  11 C11         -1.5452     5.1421    -1.5887 C.2          1    LIG   0.0000
  12 Cl12        -3.0637     6.0580    -1.4658 Cl           1    LIG   0.0000
  13 C13         -1.0337     4.9006    -2.8300 C.2          1    LIG   0.0000
  14 S14          0.3940     4.0231    -2.5371 S.3          1    LIG   0.0000
  15 C15          2.3915     1.4143    -0.0136 C.ar         1    LIG   0.0000
  16 H            3.5568    -1.6997    -0.0410 H            1    LIG   0.0000
  17 H            4.2354    -0.4585    -0.8569 H            1    LIG   0.0000
  18 H            4.2500    -0.4674     0.7760 H            1    LIG   0.0000
  19 H            1.2212    -1.6963    -0.0191 H            1    LIG   0.0000
  20 H           -0.8722    -0.5290     0.0069 H            1    LIG   0.0000
  21 H           -1.4126     5.1771    -3.7131 H            1    LIG   0.0000
  22 H            3.2521     1.9237    -0.0191 H            1    LIG   0.0000
@<TRIPOS>BOND
   1        1        2 1
   2        2        3 ar
   3        3        4 ar
   4        4        5 ar
   5        5        6 1
   6        5        7 ar
   7        7        8 1
   8        8        9 1
   9        9       10 2
  10       10       11 1
  11       11       12 1
  12       11       13 2
  13       13       14 1
  14       14        9 1
  15        7       15 ar
  16       15        2 ar
  17        1       16 1
  18        1       17 1
  19        1       18 1
  20        3       19 1
  21        4       20 1
  22       13       21 1
  23       15       22 1

@<TRIPOS>MOLECULE

  22   23
SMALL
USER_CHARGES
@<TRIPOS>ATOM
   1 C1           3.7226    -0.7135    -0.0371 C.3          1    LIG   0.0000
   2 C2           2.3938     0.0235    -0.0212 C.ar         1    LIG   0.0000
   3 C3           1.2034    -0.6965    -0.0136 C.ar         1    LIG   0.0000
   4 C4          -0.0116    -0.0196     0.0017 C.ar         1    LIG   0.0000
   5 C5          -0.0205     1.3714     0.0097 C.ar         1    LIG   0.0000
   6 Cl6         -1.5701     2.2470     0.0290 Cl           1    LIG   0.0000
   7 C7           1.1736     2.0854     0.0017 C.ar         1    LIG   0.0000
   8 O8           1.1526     3.4354     0.0095 O.3          1    LIG   0.0000
   9 C9           1.1551     4.0091     1.2301 C.2          1    LIG   0.0000
  10 N10          2.2010     4.3626     1.9387 N.2          1    LIG   0.0000
  11 C11          1.9287     4.9312     3.1568 C.2          1    LIG   0.0000
  12 Cl12         3.1438     5.5094     4.3182 Cl           1    LIG   0.0000
  13 C13          0.6101     5.0597     3.4818 C.2          1    LIG   0.0000
  14 S14         -0.2210     4.4121     2.1462 S.3          1    LIG   0.0000
  15 C15          2.3915     1.4143    -0.0136 C.ar         1    LIG   0.0000
  16 H            3.5568    -1.6997    -0.0410 H            1    LIG   0.0000
  17 H            4.2354    -0.4585    -0.8569 H            1    LIG   0.0000
  18 H            4.2500    -0.4674     0.7760 H            1    LIG   0.0000
  19 H            1.2212    -1.6963    -0.0191 H            1    LIG   0.0000
  20 H           -0.8722    -0.5290     0.0069 H            1    LIG   0.0000
  21 H            0.2199     5.4472     4.3171 H            1    LIG   0.0000
  22 H            3.2521     1.9237    -0.0191 H            1    LIG   0.0000
@<TRIPOS>BOND
   1        1        2 1
   2        2        3 ar
   3        3        4 ar
   4        4        5 ar
   5        5        6 1
   6        5        7 ar
   7        7        8 1
   8        8        9 1
   9        9       10 2
  10       10       11 1
  11       11       12 1
  12       11       13 2
  13       13       14 1
  14       14        9 1
  15        7       15 ar
  16       15        2 ar
  17        1       16 1
  18        1       17 1
  19        1       18 1
  20        3       19 1
  21        4       20 1
  22       13       21 1
  23       15       22 1

@<TRIPOS>MOLECULE

  22   23
SMALL
USER_CHARGES
@<TRIPOS>ATOM
   1 C1           3.7226    -0.7135    -0.0371 C.3          1    LIG   0.0000
   2 C2           2.3938     0.0235    -0.0212 C.ar         1    LIG   0.0000
   3 C3           1.2034    -0.6965    -0.0136 C.ar         1    LIG   0.0000
   4 C4          -0.0116    -0.0196     0.0017 C.ar         1    LIG   0.0000
   5 C5          -0.0205     1.3714     0.0097 C.ar         1    LIG   0.0000
   6 Cl6         -1.5701     2.2470     0.0290 Cl           1    LIG   0.0000
   7 C7           1.1736     2.0854     0.0017 C.ar         1    LIG   0.0000
   8 O8           1.1526     3.4354     0.0095 O.3          1    LIG   0.0000
   9 C9           1.1551     4.0091     1.2301 C.2          1    LIG   0.0000
  10 N10          0.1122     4.3308     1.9581 N.2          1    LIG   0.0000
  11 C11          0.3897     4.9053     3.1721 C.2          1    LIG   0.0000
  12 Cl12        -0.8206     5.4326     4.3626 Cl           1    LIG   0.0000
  13 C13          1.7095     5.0715     3.4740 C.2          1    LIG   0.0000
  14 S14          2.5350     4.4551     2.1202 S.3          1    LIG   0.0000
  15 C15          2.3915     1.4143    -0.0136 C.ar         1    LIG   0.0000
  16 H            3.5568    -1.6997    -0.0410 H            1    LIG   0.0000
  17 H            4.2354    -0.4585    -0.8569 H            1    LIG   0.0000
  18 H            4.2500    -0.4674     0.7760 H            1    LIG   0.0000
  19 H            1.2212    -1.6963    -0.0191 H            1    LIG   0.0000
  20 H           -0.8722    -0.5290     0.0069 H            1    LIG   0.0000
  21 H            2.1031     5.4667     4.3040 H            1    LIG   0.0000
  22 H            3.2521     1.9237    -0.0191 H            1    LIG   0.0000
@<TRIPOS>BOND
   1        1        2 1
   2        2        3 ar
   3        3        4 ar
   4        4        5 ar
   5        5        6 1
   6        5        7 ar
   7        7        8 1
   8        8        9 1
   9        9       10 2
  10       10       11 1
  11       11       12 1
  12       11       13 2
  13       13       14 1
  14       14        9 1
  15        7       15 ar
  16       15        2 ar
  17        1       16 1
  18        1       17 1
  19        1       18 1
  20        3       19 1
  21        4       20 1
  22       13       21 1
  23       15       22 1

@<TRIPOS>MOLECULE

  22   23
SMALL
USER_CHARGES
@<TRIPOS>ATOM
   1 C1           3.7226    -0.7135    -0.0371 C.3          1    LIG   0.0000
   2 C2           2.3938     0.0235    -0.0212 C.ar         1    LIG   0.0000
   3 C3           1.2034    -0.6965    -0.0136 C.ar         1    LIG   0.0000
   4 C4          -0.0116    -0.0196     0.0017 C.ar         1    LIG   0.0000
   5 C5          -0.0205     1.3714     0.0097 C.ar         1    LIG   0.0000
   6 Cl6         -1.5701     2.2470     0.0290 Cl           1    LIG   0.0000
   7 C7           1.1736     2.0854     0.0017 C.ar         1    LIG   0.0000
   8 O8           1.1526     3.4354     0.0095 O.3          1    LIG   0.0000
   9 C9           0.2911     3.9976     0.8817 C.2          1    LIG   0.0000
  10 N10         -0.2433     3.4387     1.9415 N.2          1    LIG   0.0000
  11 C11         -1.0933     4.2336     2.6673 C.2          1    LIG   0.0000
  12 Cl12        -1.9493     3.7445     4.1465 Cl           1    LIG   0.0000
  13 C13         -1.2788     5.5023     2.2018 C.2          1    LIG   0.0000
  14 S14         -0.3105     5.5875     0.8056 S.3          1    LIG   0.0000
  15 C15          2.3915     1.4143    -0.0136 C.ar         1    LIG   0.0000
  16 H            3.5568    -1.6997    -0.0410 H            1    LIG   0.0000
  17 H            4.2354    -0.4585    -0.8569 H            1    LIG   0.0000
  18 H            4.2500    -0.4674     0.7760 H            1    LIG   0.0000
  19 H            1.2212    -1.6963    -0.0191 H            1    LIG   0.0000
  20 H           -0.8722    -0.5290     0.0069 H            1    LIG   0.0000
  21 H           -1.8543     6.2204     2.5930 H            1    LIG   0.0000
  22 H            3.2521     1.9237    -0.0191 H            1    LIG   0.0000
@<TRIPOS>BOND
   1        1        2 1
   2        2        3 ar
   3        3        4 ar
   4        4        5 ar
   5        5        6 1
   6        5        7 ar
   7        7        8 1
   8        8        9 1
   9        9       10 2
  10       10       11 1
  11       11       12 1
  12       11       13 2
  13       13       14 1
  14       14        9 1
  15        7       15 ar
  16       15        2 ar
  17        1       16 1
  18        1       17 1
  19        1       18 1
  20        3       19 1
  21        4       20 1
  22       13       21 1
  23       15       22 1

@<TRIPOS>MOLECULE

  22   23
SMALL
USER_CHARGES
@<TRIPOS>ATOM
   1 C1           3.7226    -0.7135    -0.0371 C.3          1    LIG   0.0000
   2 C2           2.3938     0.0235    -0.0212 C.ar         1    LIG   0.0000
   3 C3           1.2034    -0.6965    -0.0136 C.ar         1    LIG   0.0000
   4 C4          -0.0116    -0.0196     0.0017 C.ar         1    LIG   0.0000
   5 C5          -0.0205     1.3714     0.0097 C.ar         1    LIG   0.0000
   6 Cl6         -1.5701     2.2470     0.0290 Cl           1    LIG   0.0000
   7 C7           1.1736     2.0854     0.0017 C.ar         1    LIG   0.0000
   8 O8           1.1526     3.4354     0.0095 O.3          1    LIG   0.0000
   9 C9           0.2911     3.9976     0.8817 C.2          1    LIG   0.0000
  10 N10         -0.8135     4.6467     0.5995 N.2          1    LIG   0.0000
  11 C11         -1.5152     5.1220     1.6779 C.2          1    LIG   0.0000
  12 Cl12        -3.0432     6.0266     1.5948 Cl           1    LIG   0.0000
  13 C13         -0.9822     4.8634     2.9066 C.2          1    LIG   0.0000
  14 S14          0.4426     3.9944     2.5765 S.3          1    LIG   0.0000
  15 C15          2.3915     1.4143    -0.0136 C.ar         1    LIG   0.0000
  16 H            3.5568    -1.6997    -0.0410 H            1    LIG   0.0000
  17 H            4.2354    -0.4585    -0.8569 H            1    LIG   0.0000
  18 H            4.2500    -0.4674     0.7760 H            1    LIG   0.0000
  19 H            1.2212    -1.6963    -0.0191 H            1    LIG   0.0000
  20 H           -0.8722    -0.5290     0.0069 H            1    LIG   0.0000
  21 H           -1.3469     5.1255     3.8001 H            1    LIG   0.0000
  22 H            3.2521     1.9237    -0.0191 H            1    LIG   0.0000
@<TRIPOS>BOND
   1        1        2 1
   2        2        3 ar
   3        3        4 ar
   4        4        5 ar
   5        5        6 1
   6        5        7 ar
   7        7        8 1
   8        8        9 1
   9        9       10 2
  10       10       11 1
  11       11       12 1
  12       11       13 2
  13       13       14 1
  14       14        9 1
  15        7       15 ar
  16       15        2 ar
  17        1       16 1
  18        1       17 1
  19        1       18 1
  20        3       19 1
  21        4       20 1
  22       13       21 1
  23       15       22 1

