@<TRIPOS>MOLECULE
*****
 22 23 0 0 0
SMALL
USER_CHARGES

@<TRIPOS>ATOM
      1 C1          3.7226   -0.7135   -0.0371 C.3     1  LIG1        0.0000
      2 C2          2.3938    0.0235   -0.0212 C.ar    1  LIG1        0.0000
      3 C3          1.2034   -0.6965   -0.0136 C.ar    1  LIG1        0.0000
      4 C4         -0.0116   -0.0196    0.0017 C.ar    1  LIG1        0.0000
      5 C5         -0.0205    1.3714    0.0097 C.ar    1  LIG1        0.0000
      6 Cl6        -1.5701    2.2470    0.0290 Cl      1  LIG1        0.0000
      7 C7          1.1736    2.0854    0.0017 C.ar    1  LIG1        0.0000
      8 O8          1.1526    3.4354    0.0095 O.3     1  LIG1        0.0000
      9 C9          0.2747    4.0073   -0.8398 C.2     1  LIG1        0.0000
     10 N10        -0.8247    4.6523   -0.5294 N.2     1  LIG1        0.0000
     11 C11        -1.5452    5.1421   -1.5887 C.2     1  LIG1        0.0000
     12 Cl12       -3.0637    6.0580   -1.4658 Cl      1  LIG1        0.0000
     13 C13        -1.0337    4.9006   -2.8300 C.2     1  LIG1        0.0000
     14 S14         0.3940    4.0231   -2.5371 S.3     1  LIG1        0.0000
     15 C15         2.3915    1.4143   -0.0136 C.ar    1  LIG1        0.0000
     16 H           3.5568   -1.6997   -0.0410 H       1  LIG1        0.0000
     17 H           4.2354   -0.4585   -0.8569 H       1  LIG1        0.0000
     18 H           4.2500   -0.4674    0.7760 H       1  LIG1        0.0000
     19 H           1.2212   -1.6963   -0.0191 H       1  LIG1        0.0000
     20 H          -0.8722   -0.5290    0.0069 H       1  LIG1        0.0000
     21 H          -1.4126    5.1771   -3.7131 H       1  LIG1        0.0000
     22 H           3.2521    1.9237   -0.0191 H       1  LIG1        0.0000
@<TRIPOS>BOND
     1     1     2    1
     2     2     3   ar
     3     3     4   ar
     4     4     5   ar
     5     5     6    1
     6     5     7   ar
     7     7     8    1
     8     8     9    1
     9     9    10    2
    10    10    11    1
    11    11    12    1
    12    11    13    2
    13    13    14    1
    14    14     9    1
    15     7    15   ar
    16    15     2   ar
    17     1    16    1
    18     1    17    1
    19     1    18    1
    20     3    19    1
    21     4    20    1
    22    13    21    1
    23    15    22    1
