@<TRIPOS>MOLECULE

  63   68
SMALL
USER_CHARGES
@<TRIPOS>ATOM
   1 C1          -4.7021     4.6555     0.0458 C.3          1    LIG   0.0000
   2 C2          -3.4325     3.8193     0.0586 C.ar         1    LIG   0.0000
   3 C3          -3.3857     2.6684    -0.7209 C.ar         1    LIG   0.0000
   4 C4          -2.2447     1.8736    -0.7392 C.ar         1    LIG   0.0000
   5 C5          -1.1504     2.2474     0.0335 C.ar         1    LIG   0.0000
   6 C6           0.0412     1.4218     0.0169 C.2          1    LIG   0.0000
   7 N7           1.2849     1.8421     0.0079 N.2          1    LIG   0.0000
   8 N8           2.1146     0.8240    -0.0087 N.pl3        1    LIG   0.0000
   9 C9           3.5813     0.9143    -0.0260 C.3          1    LIG   0.0000
  10 C10          4.0696     0.9546    -1.4651 C.ar         1    LIG   0.0000
  11 C11          4.3648    -0.2337    -2.1252 C.ar         1    LIG   0.0000
  12 C12          4.8117    -0.1875    -3.4416 C.ar         1    LIG   0.0000
  13 C13          4.9589     1.0379    -4.0843 C.ar         1    LIG   0.0000
  14 C14          4.6611     2.2213    -3.4166 C.ar         1    LIG   0.0000
  15 C15          4.2142     2.1841    -2.0996 C.ar         1    LIG   0.0000
  16 C16          1.4086    -0.3394    -0.0105 C.2          1    LIG   0.0000
  17 C17          0.0944     0.0161     0.0052 C.2          1    LIG   0.0000
  18 C18         -1.0396    -0.8868     0.0108 C.2          1    LIG   0.0000
  19 N19         -2.2027    -0.4293     0.0275 N.2          1    LIG   0.0000
  20 N20         -3.1660    -1.3769     0.0308 N.pl3        1    LIG   0.0000
  21 C21         -4.0715    -1.4662     1.0574 C.2          1    LIG   0.0000
  22 N22         -5.0089    -2.3975     1.0504 N.2          1    LIG   0.0000
  23 C23         -5.1236    -3.3098     0.0319 C.2          1    LIG   0.0000
  24 C24         -4.2491    -3.2555    -0.9987 C.2          1    LIG   0.0000
  25 C25         -4.5990    -4.2983    -1.8894 C.2          1    LIG   0.0000
  26 N26         -5.6341    -4.9134    -1.3683 N.2          1    LIG   0.0000
  27 N27         -5.9670    -4.3492    -0.2282 N.pl3        1    LIG   0.0000
  28 C28         -7.0261    -4.7571     0.5920 C.ar         1    LIG   0.0000
  29 C29         -8.2300    -5.1507     0.0170 C.ar         1    LIG   0.0000
  30 C30         -9.2768    -5.5536     0.8394 C.ar         1    LIG   0.0000
  31 C31         -9.1136    -5.5606     2.2214 C.ar         1    LIG   0.0000
  32 C32         -7.9060    -5.1657     2.7878 C.ar         1    LIG   0.0000
  33 C33         -6.8540    -4.7605     1.9724 C.ar         1    LIG   0.0000
  34 C34         -3.2329    -2.2635    -1.0133 C.2          1    LIG   0.0000
  35 O35         -2.4315    -2.1928    -1.9318 O.2          1    LIG   0.0000
  36 C36         -1.1846     3.3959     0.8172 C.ar         1    LIG   0.0000
  37 C37         -2.3314     4.1831     0.8278 C.ar         1    LIG   0.0000
  38 C38         -2.3465     5.4340     1.6917 C.3          1    LIG   0.0000
  39 H           -5.3735     4.2328    -0.5630 H            1    LIG   0.0000
  40 H           -5.0770     4.7065     0.9714 H            1    LIG   0.0000
  41 H           -4.4909     5.5772    -0.2795 H            1    LIG   0.0000
  42 H           -4.1788     2.4105    -1.2727 H            1    LIG   0.0000
  43 H           -2.2116     1.0459    -1.2994 H            1    LIG   0.0000
  44 H            3.9698     0.1168     0.4356 H            1    LIG   0.0000
  45 H            3.8696     1.7467     0.4473 H            1    LIG   0.0000
  46 H            4.2569    -1.1115    -1.6585 H            1    LIG   0.0000
  47 H            5.0272    -1.0352    -3.9262 H            1    LIG   0.0000
  48 H            5.2804     1.0679    -5.0308 H            1    LIG   0.0000
  49 H            4.7683     3.0992    -3.8834 H            1    LIG   0.0000
  50 H            3.9993     3.0317    -1.6145 H            1    LIG   0.0000
  51 H            1.7800    -1.2678    -0.0211 H            1    LIG   0.0000
  52 H           -0.8913    -1.8757     0.0014 H            1    LIG   0.0000
  53 H           -4.0216    -0.8200     1.8189 H            1    LIG   0.0000
  54 H           -4.1441    -4.5233    -2.7510 H            1    LIG   0.0000
  55 H           -8.3416    -5.1439    -0.9767 H            1    LIG   0.0000
  56 H          -10.1470    -5.8385     0.4375 H            1    LIG   0.0000
  57 H           -9.8680    -5.8509     2.8101 H            1    LIG   0.0000
  58 H           -7.7939    -5.1730     3.7815 H            1    LIG   0.0000
  59 H           -5.9840    -4.4749     2.3742 H            1    LIG   0.0000
  60 H           -0.3912     3.6537     1.3686 H            1    LIG   0.0000
  61 H           -1.4698     5.5232     2.1644 H            1    LIG   0.0000
  62 H           -2.4968     6.2363     1.1139 H            1    LIG   0.0000
  63 H           -3.0828     5.3653     2.3648 H            1    LIG   0.0000
@<TRIPOS>BOND
   1        1        2 1
   2        2        3 ar
   3        3        4 ar
   4        4        5 ar
   5        5        6 1
   6        6        7 2
   7        7        8 1
   8        8        9 1
   9        9       10 1
  10       10       11 ar
  11       11       12 ar
  12       12       13 ar
  13       13       14 ar
  14       14       15 ar
  15       15       10 ar
  16        8       16 1
  17       16       17 2
  18       17        6 1
  19       17       18 1
  20       18       19 2
  21       19       20 1
  22       20       21 1
  23       21       22 2
  24       22       23 1
  25       23       24 2
  26       24       25 1
  27       25       26 2
  28       26       27 1
  29       27       23 1
  30       27       28 1
  31       28       29 ar
  32       29       30 ar
  33       30       31 ar
  34       31       32 ar
  35       32       33 ar
  36       33       28 ar
  37       24       34 1
  38       34       20 1
  39       34       35 2
  40        5       36 ar
  41       36       37 ar
  42       37        2 ar
  43       37       38 1
  44        1       39 1
  45        1       40 1
  46        1       41 1
  47        3       42 1
  48        4       43 1
  49        9       44 1
  50        9       45 1
  51       11       46 1
  52       12       47 1
  53       13       48 1
  54       14       49 1
  55       15       50 1
  56       16       51 1
  57       18       52 1
  58       21       53 1
  59       25       54 1
  60       29       55 1
  61       30       56 1
  62       31       57 1
  63       32       58 1
  64       33       59 1
  65       36       60 1
  66       38       61 1
  67       38       62 1
  68       38       63 1

@<TRIPOS>MOLECULE

  63   68
SMALL
USER_CHARGES
@<TRIPOS>ATOM
   1 C1          -4.7021     4.6555     0.0458 C.3          1    LIG   0.0000
   2 C2          -3.4325     3.8193     0.0586 C.ar         1    LIG   0.0000
   3 C3          -3.3857     2.6684    -0.7209 C.ar         1    LIG   0.0000
   4 C4          -2.2447     1.8736    -0.7392 C.ar         1    LIG   0.0000
   5 C5          -1.1504     2.2474     0.0335 C.ar         1    LIG   0.0000
   6 C6           0.0412     1.4218     0.0169 C.2          1    LIG   0.0000
   7 N7           1.2849     1.8421     0.0079 N.2          1    LIG   0.0000
   8 N8           2.1146     0.8240    -0.0087 N.pl3        1    LIG   0.0000
   9 C9           3.5813     0.9143    -0.0260 C.3          1    LIG   0.0000
  10 C10          4.1045     0.9362     1.4012 C.ar         1    LIG   0.0000
  11 C11          4.2672     2.1527     2.0559 C.ar         1    LIG   0.0000
  12 C12          4.7471     2.1636     3.3613 C.ar         1    LIG   0.0000
  13 C13          5.0586     0.9664     3.9987 C.ar         1    LIG   0.0000
  14 C14          4.8925    -0.2456     3.3365 C.ar         1    LIG   0.0000
  15 C15          4.4137    -0.2653     2.0304 C.ar         1    LIG   0.0000
  16 C16          1.4086    -0.3394    -0.0105 C.2          1    LIG   0.0000
  17 C17          0.0944     0.0161     0.0052 C.2          1    LIG   0.0000
  18 C18         -1.0396    -0.8868     0.0108 C.2          1    LIG   0.0000
  19 N19         -2.2027    -0.4293     0.0275 N.2          1    LIG   0.0000
  20 N20         -3.1660    -1.3769     0.0308 N.pl3        1    LIG   0.0000
  21 C21         -4.0715    -1.4662     1.0574 C.2          1    LIG   0.0000
  22 N22         -5.0089    -2.3975     1.0504 N.2          1    LIG   0.0000
  23 C23         -5.1236    -3.3098     0.0319 C.2          1    LIG   0.0000
  24 C24         -4.2491    -3.2555    -0.9987 C.2          1    LIG   0.0000
  25 C25         -4.5990    -4.2983    -1.8894 C.2          1    LIG   0.0000
  26 N26         -5.6341    -4.9134    -1.3683 N.2          1    LIG   0.0000
  27 N27         -5.9670    -4.3492    -0.2282 N.pl3        1    LIG   0.0000
  28 C28         -7.0261    -4.7571     0.5920 C.ar         1    LIG   0.0000
  29 C29         -8.2300    -5.1507     0.0170 C.ar         1    LIG   0.0000
  30 C30         -9.2768    -5.5536     0.8394 C.ar         1    LIG   0.0000
  31 C31         -9.1136    -5.5606     2.2214 C.ar         1    LIG   0.0000
  32 C32         -7.9060    -5.1657     2.7878 C.ar         1    LIG   0.0000
  33 C33         -6.8540    -4.7605     1.9724 C.ar         1    LIG   0.0000
  34 C34         -3.2329    -2.2635    -1.0133 C.2          1    LIG   0.0000
  35 O35         -2.4315    -2.1928    -1.9318 O.2          1    LIG   0.0000
  36 C36         -1.1846     3.3959     0.8172 C.ar         1    LIG   0.0000
  37 C37         -2.3314     4.1831     0.8278 C.ar         1    LIG   0.0000
  38 C38         -2.3465     5.4340     1.6917 C.3          1    LIG   0.0000
  39 H           -5.3735     4.2328    -0.5630 H            1    LIG   0.0000
  40 H           -5.0770     4.7065     0.9714 H            1    LIG   0.0000
  41 H           -4.4909     5.5772    -0.2795 H            1    LIG   0.0000
  42 H           -4.1788     2.4105    -1.2727 H            1    LIG   0.0000
  43 H           -2.2116     1.0459    -1.2994 H            1    LIG   0.0000
  44 H            3.8582     1.7527    -0.4954 H            1    LIG   0.0000
  45 H            3.9583     0.1228    -0.5071 H            1    LIG   0.0000
  46 H            4.0416     3.0100     1.5931 H            1    LIG   0.0000
  47 H            4.8684     3.0320     3.8420 H            1    LIG   0.0000
  48 H            5.4034     0.9774     4.9373 H            1    LIG   0.0000
  49 H            5.1175    -1.1030     3.7993 H            1    LIG   0.0000
  50 H            4.2930    -1.1336     1.5492 H            1    LIG   0.0000
  51 H            1.7800    -1.2678    -0.0211 H            1    LIG   0.0000
  52 H           -0.8913    -1.8757     0.0014 H            1    LIG   0.0000
  53 H           -4.0216    -0.8200     1.8189 H            1    LIG   0.0000
  54 H           -4.1441    -4.5233    -2.7510 H            1    LIG   0.0000
  55 H           -8.3416    -5.1439    -0.9767 H            1    LIG   0.0000
  56 H          -10.1470    -5.8385     0.4375 H            1    LIG   0.0000
  57 H           -9.8680    -5.8509     2.8101 H            1    LIG   0.0000
  58 H           -7.7939    -5.1730     3.7815 H            1    LIG   0.0000
  59 H           -5.9840    -4.4749     2.3742 H            1    LIG   0.0000
  60 H           -0.3912     3.6537     1.3686 H            1    LIG   0.0000
  61 H           -1.4698     5.5232     2.1644 H            1    LIG   0.0000
  62 H           -2.4968     6.2363     1.1139 H            1    LIG   0.0000
  63 H           -3.0828     5.3653     2.3648 H            1    LIG   0.0000
@<TRIPOS>BOND
   1        1        2 1
   2        2        3 ar
   3        3        4 ar
   4        4        5 ar
   5        5        6 1
   6        6        7 2
   7        7        8 1
   8        8        9 1
   9        9       10 1
  10       10       11 ar
  11       11       12 ar
  12       12       13 ar
  13       13       14 ar
  14       14       15 ar
  15       15       10 ar
  16        8       16 1
  17       16       17 2
  18       17        6 1
  19       17       18 1
  20       18       19 2
  21       19       20 1
  22       20       21 1
  23       21       22 2
  24       22       23 1
  25       23       24 2
  26       24       25 1
  27       25       26 2
  28       26       27 1
  29       27       23 1
  30       27       28 1
  31       28       29 ar
  32       29       30 ar
  33       30       31 ar
  34       31       32 ar
  35       32       33 ar
  36       33       28 ar
  37       24       34 1
  38       34       20 1
  39       34       35 2
  40        5       36 ar
  41       36       37 ar
  42       37        2 ar
  43       37       38 1
  44        1       39 1
  45        1       40 1
  46        1       41 1
  47        3       42 1
  48        4       43 1
  49        9       44 1
  50        9       45 1
  51       11       46 1
  52       12       47 1
  53       13       48 1
  54       14       49 1
  55       15       50 1
  56       16       51 1
  57       18       52 1
  58       21       53 1
  59       25       54 1
  60       29       55 1
  61       30       56 1
  62       31       57 1
  63       32       58 1
  64       33       59 1
  65       36       60 1
  66       38       61 1
  67       38       62 1
  68       38       63 1

@<TRIPOS>MOLECULE

  63   68
SMALL
USER_CHARGES
@<TRIPOS>ATOM
   1 C1          -4.7021     4.6555     0.0458 C.3          1    LIG   0.0000
   2 C2          -3.4325     3.8193     0.0586 C.ar         1    LIG   0.0000
   3 C3          -3.3857     2.6684    -0.7209 C.ar         1    LIG   0.0000
   4 C4          -2.2447     1.8736    -0.7392 C.ar         1    LIG   0.0000
   5 C5          -1.1504     2.2474     0.0335 C.ar         1    LIG   0.0000
   6 C6           0.0412     1.4218     0.0169 C.2          1    LIG   0.0000
   7 N7           1.2849     1.8421     0.0079 N.2          1    LIG   0.0000
   8 N8           2.1146     0.8240    -0.0087 N.pl3        1    LIG   0.0000
   9 C9           3.5813     0.9143    -0.0260 C.3          1    LIG   0.0000
  10 C10          4.0696     0.9546    -1.4651 C.ar         1    LIG   0.0000
  11 C11          4.3648    -0.2337    -2.1252 C.ar         1    LIG   0.0000
  12 C12          4.8117    -0.1875    -3.4416 C.ar         1    LIG   0.0000
  13 C13          4.9589     1.0379    -4.0843 C.ar         1    LIG   0.0000
  14 C14          4.6611     2.2213    -3.4166 C.ar         1    LIG   0.0000
  15 C15          4.2142     2.1841    -2.0996 C.ar         1    LIG   0.0000
  16 C16          1.4086    -0.3394    -0.0105 C.2          1    LIG   0.0000
  17 C17          0.0944     0.0161     0.0052 C.2          1    LIG   0.0000
  18 C18         -1.0396    -0.8868     0.0108 C.2          1    LIG   0.0000
  19 N19         -2.2027    -0.4293     0.0275 N.2          1    LIG   0.0000
  20 N20         -3.1660    -1.3769     0.0308 N.pl3        1    LIG   0.0000
  21 C21         -3.2738    -2.2843    -0.9923 C.2          1    LIG   0.0000
  22 N22         -4.2203    -3.2063    -0.9786 N.2          1    LIG   0.0000
  23 C23         -5.1308    -3.3025     0.0434 C.2          1    LIG   0.0000
  24 C24         -5.0585    -2.4254     1.0707 C.2          1    LIG   0.0000
  25 C25         -6.1038    -2.7550     1.9662 C.2          1    LIG   0.0000
  26 N26         -6.7376    -3.7817     1.4510 N.2          1    LIG   0.0000
  27 N27         -6.1830    -4.1278     0.3101 N.pl3        1    LIG   0.0000
  28 C28         -6.6111    -5.1828    -0.5050 C.ar         1    LIG   0.0000
  29 C29         -7.0224    -6.3781     0.0757 C.ar         1    LIG   0.0000
  30 C30         -7.4454    -7.4210    -0.7417 C.ar         1    LIG   0.0000
  31 C31         -7.4545    -7.2625    -2.1241 C.ar         1    LIG   0.0000
  32 C32         -7.0418    -6.0635    -2.6962 C.ar         1    LIG   0.0000
  33 C33         -6.6166    -5.0155    -1.8859 C.ar         1    LIG   0.0000
  34 C34         -4.0499    -1.4256     1.0783 C.2          1    LIG   0.0000
  35 O35         -3.9628    -0.6223     1.9937 O.2          1    LIG   0.0000
  36 C36         -1.1846     3.3959     0.8172 C.ar         1    LIG   0.0000
  37 C37         -2.3314     4.1831     0.8278 C.ar         1    LIG   0.0000
  38 C38         -2.3465     5.4340     1.6917 C.3          1    LIG   0.0000
  39 H           -5.3735     4.2328    -0.5630 H            1    LIG   0.0000
  40 H           -5.0770     4.7065     0.9714 H            1    LIG   0.0000
  41 H           -4.4909     5.5772    -0.2795 H            1    LIG   0.0000
  42 H           -4.1788     2.4105    -1.2727 H            1    LIG   0.0000
  43 H           -2.2116     1.0459    -1.2994 H            1    LIG   0.0000
  44 H            3.9698     0.1168     0.4356 H            1    LIG   0.0000
  45 H            3.8696     1.7467     0.4473 H            1    LIG   0.0000
  46 H            4.2569    -1.1115    -1.6585 H            1    LIG   0.0000
  47 H            5.0272    -1.0352    -3.9262 H            1    LIG   0.0000
  48 H            5.2804     1.0679    -5.0308 H            1    LIG   0.0000
  49 H            4.7683     3.0992    -3.8834 H            1    LIG   0.0000
  50 H            3.9993     3.0317    -1.6145 H            1    LIG   0.0000
  51 H            1.7800    -1.2678    -0.0211 H            1    LIG   0.0000
  52 H           -0.8913    -1.8757     0.0014 H            1    LIG   0.0000
  53 H           -2.6295    -2.2477    -1.7562 H            1    LIG   0.0000
  54 H           -6.3182    -2.2935     2.8270 H            1    LIG   0.0000
  55 H           -7.0139    -6.4864     1.0698 H            1    LIG   0.0000
  56 H           -7.7431    -8.2850    -0.3357 H            1    LIG   0.0000
  57 H           -7.7592    -8.0141    -2.7092 H            1    LIG   0.0000
  58 H           -7.0508    -5.9548    -3.6903 H            1    LIG   0.0000
  59 H           -6.3181    -4.1517    -2.2918 H            1    LIG   0.0000
  60 H           -0.3912     3.6537     1.3686 H            1    LIG   0.0000
  61 H           -1.4698     5.5232     2.1644 H            1    LIG   0.0000
  62 H           -2.4968     6.2363     1.1139 H            1    LIG   0.0000
  63 H           -3.0828     5.3653     2.3648 H            1    LIG   0.0000
@<TRIPOS>BOND
   1        1        2 1
   2        2        3 ar
   3        3        4 ar
   4        4        5 ar
   5        5        6 1
   6        6        7 2
   7        7        8 1
   8        8        9 1
   9        9       10 1
  10       10       11 ar
  11       11       12 ar
  12       12       13 ar
  13       13       14 ar
  14       14       15 ar
  15       15       10 ar
  16        8       16 1
  17       16       17 2
  18       17        6 1
  19       17       18 1
  20       18       19 2
  21       19       20 1
  22       20       21 1
  23       21       22 2
  24       22       23 1
  25       23       24 2
  26       24       25 1
  27       25       26 2
  28       26       27 1
  29       27       23 1
  30       27       28 1
  31       28       29 ar
  32       29       30 ar
  33       30       31 ar
  34       31       32 ar
  35       32       33 ar
  36       33       28 ar
  37       24       34 1
  38       34       20 1
  39       34       35 2
  40        5       36 ar
  41       36       37 ar
  42       37        2 ar
  43       37       38 1
  44        1       39 1
  45        1       40 1
  46        1       41 1
  47        3       42 1
  48        4       43 1
  49        9       44 1
  50        9       45 1
  51       11       46 1
  52       12       47 1
  53       13       48 1
  54       14       49 1
  55       15       50 1
  56       16       51 1
  57       18       52 1
  58       21       53 1
  59       25       54 1
  60       29       55 1
  61       30       56 1
  62       31       57 1
  63       32       58 1
  64       33       59 1
  65       36       60 1
  66       38       61 1
  67       38       62 1
  68       38       63 1

@<TRIPOS>MOLECULE

  63   68
SMALL
USER_CHARGES
@<TRIPOS>ATOM
   1 C1          -4.7021     4.6555     0.0458 C.3          1    LIG   0.0000
   2 C2          -3.4325     3.8193     0.0586 C.ar         1    LIG   0.0000
   3 C3          -3.3857     2.6684    -0.7209 C.ar         1    LIG   0.0000
   4 C4          -2.2447     1.8736    -0.7392 C.ar         1    LIG   0.0000
   5 C5          -1.1504     2.2474     0.0335 C.ar         1    LIG   0.0000
   6 C6           0.0412     1.4218     0.0169 C.2          1    LIG   0.0000
   7 N7           1.2849     1.8421     0.0079 N.2          1    LIG   0.0000
   8 N8           2.1146     0.8240    -0.0087 N.pl3        1    LIG   0.0000
   9 C9           3.5813     0.9143    -0.0260 C.3          1    LIG   0.0000
  10 C10          4.1045     0.9362     1.4012 C.ar         1    LIG   0.0000
  11 C11          4.2672     2.1527     2.0559 C.ar         1    LIG   0.0000
  12 C12          4.7471     2.1636     3.3613 C.ar         1    LIG   0.0000
  13 C13          5.0586     0.9664     3.9987 C.ar         1    LIG   0.0000
  14 C14          4.8925    -0.2456     3.3365 C.ar         1    LIG   0.0000
  15 C15          4.4137    -0.2653     2.0304 C.ar         1    LIG   0.0000
  16 C16          1.4086    -0.3394    -0.0105 C.2          1    LIG   0.0000
  17 C17          0.0944     0.0161     0.0052 C.2          1    LIG   0.0000
  18 C18         -1.0396    -0.8868     0.0108 C.2          1    LIG   0.0000
  19 N19         -2.2027    -0.4293     0.0275 N.2          1    LIG   0.0000
  20 N20         -3.1660    -1.3769     0.0308 N.pl3        1    LIG   0.0000
  21 C21         -3.2738    -2.2843    -0.9923 C.2          1    LIG   0.0000
  22 N22         -4.2203    -3.2063    -0.9786 N.2          1    LIG   0.0000
  23 C23         -5.1308    -3.3025     0.0434 C.2          1    LIG   0.0000
  24 C24         -5.0585    -2.4254     1.0707 C.2          1    LIG   0.0000
  25 C25         -6.1038    -2.7550     1.9662 C.2          1    LIG   0.0000
  26 N26         -6.7376    -3.7817     1.4510 N.2          1    LIG   0.0000
  27 N27         -6.1830    -4.1278     0.3101 N.pl3        1    LIG   0.0000
  28 C28         -6.6111    -5.1828    -0.5050 C.ar         1    LIG   0.0000
  29 C29         -7.0224    -6.3781     0.0757 C.ar         1    LIG   0.0000
  30 C30         -7.4454    -7.4210    -0.7417 C.ar         1    LIG   0.0000
  31 C31         -7.4545    -7.2625    -2.1241 C.ar         1    LIG   0.0000
  32 C32         -7.0418    -6.0635    -2.6962 C.ar         1    LIG   0.0000
  33 C33         -6.6166    -5.0155    -1.8859 C.ar         1    LIG   0.0000
  34 C34         -4.0499    -1.4256     1.0783 C.2          1    LIG   0.0000
  35 O35         -3.9628    -0.6223     1.9937 O.2          1    LIG   0.0000
  36 C36         -1.1846     3.3959     0.8172 C.ar         1    LIG   0.0000
  37 C37         -2.3314     4.1831     0.8278 C.ar         1    LIG   0.0000
  38 C38         -2.3465     5.4340     1.6917 C.3          1    LIG   0.0000
  39 H           -5.3735     4.2328    -0.5630 H            1    LIG   0.0000
  40 H           -5.0770     4.7065     0.9714 H            1    LIG   0.0000
  41 H           -4.4909     5.5772    -0.2795 H            1    LIG   0.0000
  42 H           -4.1788     2.4105    -1.2727 H            1    LIG   0.0000
  43 H           -2.2116     1.0459    -1.2994 H            1    LIG   0.0000
  44 H            3.8582     1.7527    -0.4954 H            1    LIG   0.0000
  45 H            3.9583     0.1228    -0.5071 H            1    LIG   0.0000
  46 H            4.0416     3.0100     1.5931 H            1    LIG   0.0000
  47 H            4.8684     3.0320     3.8420 H            1    LIG   0.0000
  48 H            5.4034     0.9774     4.9373 H            1    LIG   0.0000
  49 H            5.1175    -1.1030     3.7993 H            1    LIG   0.0000
  50 H            4.2930    -1.1336     1.5492 H            1    LIG   0.0000
  51 H            1.7800    -1.2678    -0.0211 H            1    LIG   0.0000
  52 H           -0.8913    -1.8757     0.0014 H            1    LIG   0.0000
  53 H           -2.6295    -2.2477    -1.7562 H            1    LIG   0.0000
  54 H           -6.3182    -2.2935     2.8270 H            1    LIG   0.0000
  55 H           -7.0139    -6.4864     1.0698 H            1    LIG   0.0000
  56 H           -7.7431    -8.2850    -0.3357 H            1    LIG   0.0000
  57 H           -7.7592    -8.0141    -2.7092 H            1    LIG   0.0000
  58 H           -7.0508    -5.9548    -3.6903 H            1    LIG   0.0000
  59 H           -6.3181    -4.1517    -2.2918 H            1    LIG   0.0000
  60 H           -0.3912     3.6537     1.3686 H            1    LIG   0.0000
  61 H           -1.4698     5.5232     2.1644 H            1    LIG   0.0000
  62 H           -2.4968     6.2363     1.1139 H            1    LIG   0.0000
  63 H           -3.0828     5.3653     2.3648 H            1    LIG   0.0000
@<TRIPOS>BOND
   1        1        2 1
   2        2        3 ar
   3        3        4 ar
   4        4        5 ar
   5        5        6 1
   6        6        7 2
   7        7        8 1
   8        8        9 1
   9        9       10 1
  10       10       11 ar
  11       11       12 ar
  12       12       13 ar
  13       13       14 ar
  14       14       15 ar
  15       15       10 ar
  16        8       16 1
  17       16       17 2
  18       17        6 1
  19       17       18 1
  20       18       19 2
  21       19       20 1
  22       20       21 1
  23       21       22 2
  24       22       23 1
  25       23       24 2
  26       24       25 1
  27       25       26 2
  28       26       27 1
  29       27       23 1
  30       27       28 1
  31       28       29 ar
  32       29       30 ar
  33       30       31 ar
  34       31       32 ar
  35       32       33 ar
  36       33       28 ar
  37       24       34 1
  38       34       20 1
  39       34       35 2
  40        5       36 ar
  41       36       37 ar
  42       37        2 ar
  43       37       38 1
  44        1       39 1
  45        1       40 1
  46        1       41 1
  47        3       42 1
  48        4       43 1
  49        9       44 1
  50        9       45 1
  51       11       46 1
  52       12       47 1
  53       13       48 1
  54       14       49 1
  55       15       50 1
  56       16       51 1
  57       18       52 1
  58       21       53 1
  59       25       54 1
  60       29       55 1
  61       30       56 1
  62       31       57 1
  63       32       58 1
  64       33       59 1
  65       36       60 1
  66       38       61 1
  67       38       62 1
  68       38       63 1

@<TRIPOS>MOLECULE

  63   68
SMALL
USER_CHARGES
@<TRIPOS>ATOM
   1 C1          -4.7021     4.6555     0.0458 C.3          1    LIG   0.0000
   2 C2          -3.4325     3.8193     0.0586 C.ar         1    LIG   0.0000
   3 C3          -3.3857     2.6684    -0.7209 C.ar         1    LIG   0.0000
   4 C4          -2.2447     1.8736    -0.7392 C.ar         1    LIG   0.0000
   5 C5          -1.1504     2.2474     0.0335 C.ar         1    LIG   0.0000
   6 C6           0.0412     1.4218     0.0169 C.2          1    LIG   0.0000
   7 N7           1.2849     1.8421     0.0079 N.2          1    LIG   0.0000
   8 N8           2.1146     0.8240    -0.0087 N.pl3        1    LIG   0.0000
   9 C9           3.5813     0.9143    -0.0260 C.3          1    LIG   0.0000
  10 C10          4.0696     0.9546    -1.4651 C.ar         1    LIG   0.0000
  11 C11          4.3648    -0.2337    -2.1252 C.ar         1    LIG   0.0000
  12 C12          4.8117    -0.1875    -3.4416 C.ar         1    LIG   0.0000
  13 C13          4.9589     1.0379    -4.0843 C.ar         1    LIG   0.0000
  14 C14          4.6611     2.2213    -3.4166 C.ar         1    LIG   0.0000
  15 C15          4.2142     2.1841    -2.0996 C.ar         1    LIG   0.0000
  16 C16          1.4086    -0.3394    -0.0105 C.2          1    LIG   0.0000
  17 C17          0.0944     0.0161     0.0052 C.2          1    LIG   0.0000
  18 C18         -1.0396    -0.8868     0.0108 C.2          1    LIG   0.0000
  19 N19         -2.2027    -0.4293     0.0275 N.2          1    LIG   0.0000
  20 N20         -3.1660    -1.3769     0.0308 N.pl3        1    LIG   0.0000
  21 C21         -2.9529    -2.6049     0.6039 C.2          1    LIG   0.0000
  22 N22         -3.9022    -3.5242     0.6007 N.2          1    LIG   0.0000
  23 C23         -5.1313    -3.3020     0.0325 C.2          1    LIG   0.0000
  24 C24         -5.3805    -2.1038    -0.5437 C.2          1    LIG   0.0000
  25 C25         -6.7052    -2.1542    -1.0393 C.2          1    LIG   0.0000
  26 N26         -7.1758    -3.3440    -0.7490 N.2          1    LIG   0.0000
  27 N27         -6.2640    -4.0469    -0.1137 N.pl3        1    LIG   0.0000
  28 C28         -6.4334    -5.3605     0.3407 C.ar         1    LIG   0.0000
  29 C29         -7.6452    -5.7420     0.9073 C.ar         1    LIG   0.0000
  30 C30         -7.8044    -7.0486     1.3566 C.ar         1    LIG   0.0000
  31 C31         -6.7582    -7.9584     1.2370 C.ar         1    LIG   0.0000
  32 C32         -5.5499    -7.5683     0.6688 C.ar         1    LIG   0.0000
  33 C33         -5.3821    -6.2630     0.2174 C.ar         1    LIG   0.0000
  34 C34         -4.3758    -1.1000    -0.5527 C.2          1    LIG   0.0000
  35 O35         -4.5755    -0.0102    -1.0658 O.2          1    LIG   0.0000
  36 C36         -1.1846     3.3959     0.8172 C.ar         1    LIG   0.0000
  37 C37         -2.3314     4.1831     0.8278 C.ar         1    LIG   0.0000
  38 C38         -2.3465     5.4340     1.6917 C.3          1    LIG   0.0000
  39 H           -5.3735     4.2328    -0.5630 H            1    LIG   0.0000
  40 H           -5.0770     4.7065     0.9714 H            1    LIG   0.0000
  41 H           -4.4909     5.5772    -0.2795 H            1    LIG   0.0000
  42 H           -4.1788     2.4105    -1.2727 H            1    LIG   0.0000
  43 H           -2.2116     1.0459    -1.2994 H            1    LIG   0.0000
  44 H            3.9698     0.1168     0.4356 H            1    LIG   0.0000
  45 H            3.8696     1.7467     0.4473 H            1    LIG   0.0000
  46 H            4.2569    -1.1115    -1.6585 H            1    LIG   0.0000
  47 H            5.0272    -1.0352    -3.9262 H            1    LIG   0.0000
  48 H            5.2804     1.0679    -5.0308 H            1    LIG   0.0000
  49 H            4.7683     3.0992    -3.8834 H            1    LIG   0.0000
  50 H            3.9993     3.0317    -1.6145 H            1    LIG   0.0000
  51 H            1.7800    -1.2678    -0.0211 H            1    LIG   0.0000
  52 H           -0.8913    -1.8757     0.0014 H            1    LIG   0.0000
  53 H           -2.0702    -2.8064     1.0284 H            1    LIG   0.0000
  54 H           -7.1898    -1.4228    -1.5191 H            1    LIG   0.0000
  55 H           -8.3937    -5.0840     0.9905 H            1    LIG   0.0000
  56 H           -8.6709    -7.3343     1.7659 H            1    LIG   0.0000
  57 H           -6.8757    -8.8972     1.5609 H            1    LIG   0.0000
  58 H           -4.8015    -8.2263     0.5849 H            1    LIG   0.0000
  59 H           -4.5154    -5.9768    -0.1912 H            1    LIG   0.0000
  60 H           -0.3912     3.6537     1.3686 H            1    LIG   0.0000
  61 H           -1.4698     5.5232     2.1644 H            1    LIG   0.0000
  62 H           -2.4968     6.2363     1.1139 H            1    LIG   0.0000
  63 H           -3.0828     5.3653     2.3648 H            1    LIG   0.0000
@<TRIPOS>BOND
   1        1        2 1
   2        2        3 ar
   3        3        4 ar
   4        4        5 ar
   5        5        6 1
   6        6        7 2
   7        7        8 1
   8        8        9 1
   9        9       10 1
  10       10       11 ar
  11       11       12 ar
  12       12       13 ar
  13       13       14 ar
  14       14       15 ar
  15       15       10 ar
  16        8       16 1
  17       16       17 2
  18       17        6 1
  19       17       18 1
  20       18       19 2
  21       19       20 1
  22       20       21 1
  23       21       22 2
  24       22       23 1
  25       23       24 2
  26       24       25 1
  27       25       26 2
  28       26       27 1
  29       27       23 1
  30       27       28 1
  31       28       29 ar
  32       29       30 ar
  33       30       31 ar
  34       31       32 ar
  35       32       33 ar
  36       33       28 ar
  37       24       34 1
  38       34       20 1
  39       34       35 2
  40        5       36 ar
  41       36       37 ar
  42       37        2 ar
  43       37       38 1
  44        1       39 1
  45        1       40 1
  46        1       41 1
  47        3       42 1
  48        4       43 1
  49        9       44 1
  50        9       45 1
  51       11       46 1
  52       12       47 1
  53       13       48 1
  54       14       49 1
  55       15       50 1
  56       16       51 1
  57       18       52 1
  58       21       53 1
  59       25       54 1
  60       29       55 1
  61       30       56 1
  62       31       57 1
  63       32       58 1
  64       33       59 1
  65       36       60 1
  66       38       61 1
  67       38       62 1
  68       38       63 1

@<TRIPOS>MOLECULE

  63   68
SMALL
USER_CHARGES
@<TRIPOS>ATOM
   1 C1          -4.7021     4.6555     0.0458 C.3          1    LIG   0.0000
   2 C2          -3.4325     3.8193     0.0586 C.ar         1    LIG   0.0000
   3 C3          -3.3857     2.6684    -0.7209 C.ar         1    LIG   0.0000
   4 C4          -2.2447     1.8736    -0.7392 C.ar         1    LIG   0.0000
   5 C5          -1.1504     2.2474     0.0335 C.ar         1    LIG   0.0000
   6 C6           0.0412     1.4218     0.0169 C.2          1    LIG   0.0000
   7 N7           1.2849     1.8421     0.0079 N.2          1    LIG   0.0000
   8 N8           2.1146     0.8240    -0.0087 N.pl3        1    LIG   0.0000
   9 C9           3.5813     0.9143    -0.0260 C.3          1    LIG   0.0000
  10 C10          4.1045     0.9362     1.4012 C.ar         1    LIG   0.0000
  11 C11          4.2672     2.1527     2.0559 C.ar         1    LIG   0.0000
  12 C12          4.7471     2.1636     3.3613 C.ar         1    LIG   0.0000
  13 C13          5.0586     0.9664     3.9987 C.ar         1    LIG   0.0000
  14 C14          4.8925    -0.2456     3.3365 C.ar         1    LIG   0.0000
  15 C15          4.4137    -0.2653     2.0304 C.ar         1    LIG   0.0000
  16 C16          1.4086    -0.3394    -0.0105 C.2          1    LIG   0.0000
  17 C17          0.0944     0.0161     0.0052 C.2          1    LIG   0.0000
  18 C18         -1.0396    -0.8868     0.0108 C.2          1    LIG   0.0000
  19 N19         -2.2027    -0.4293     0.0275 N.2          1    LIG   0.0000
  20 N20         -3.1660    -1.3769     0.0308 N.pl3        1    LIG   0.0000
  21 C21         -2.9529    -2.6049     0.6039 C.2          1    LIG   0.0000
  22 N22         -3.9022    -3.5242     0.6007 N.2          1    LIG   0.0000
  23 C23         -5.1313    -3.3020     0.0325 C.2          1    LIG   0.0000
  24 C24         -5.3805    -2.1038    -0.5437 C.2          1    LIG   0.0000
  25 C25         -6.7052    -2.1542    -1.0393 C.2          1    LIG   0.0000
  26 N26         -7.1758    -3.3440    -0.7490 N.2          1    LIG   0.0000
  27 N27         -6.2640    -4.0469    -0.1137 N.pl3        1    LIG   0.0000
  28 C28         -6.4334    -5.3605     0.3407 C.ar         1    LIG   0.0000
  29 C29         -7.6452    -5.7420     0.9073 C.ar         1    LIG   0.0000
  30 C30         -7.8044    -7.0486     1.3566 C.ar         1    LIG   0.0000
  31 C31         -6.7582    -7.9584     1.2370 C.ar         1    LIG   0.0000
  32 C32         -5.5499    -7.5683     0.6688 C.ar         1    LIG   0.0000
  33 C33         -5.3821    -6.2630     0.2174 C.ar         1    LIG   0.0000
  34 C34         -4.3758    -1.1000    -0.5527 C.2          1    LIG   0.0000
  35 O35         -4.5755    -0.0102    -1.0658 O.2          1    LIG   0.0000
  36 C36         -1.1846     3.3959     0.8172 C.ar         1    LIG   0.0000
  37 C37         -2.3314     4.1831     0.8278 C.ar         1    LIG   0.0000
  38 C38         -2.3465     5.4340     1.6917 C.3          1    LIG   0.0000
  39 H           -5.3735     4.2328    -0.5630 H            1    LIG   0.0000
  40 H           -5.0770     4.7065     0.9714 H            1    LIG   0.0000
  41 H           -4.4909     5.5772    -0.2795 H            1    LIG   0.0000
  42 H           -4.1788     2.4105    -1.2727 H            1    LIG   0.0000
  43 H           -2.2116     1.0459    -1.2994 H            1    LIG   0.0000
  44 H            3.8582     1.7527    -0.4954 H            1    LIG   0.0000
  45 H            3.9583     0.1228    -0.5071 H            1    LIG   0.0000
  46 H            4.0416     3.0100     1.5931 H            1    LIG   0.0000
  47 H            4.8684     3.0320     3.8420 H            1    LIG   0.0000
  48 H            5.4034     0.9774     4.9373 H            1    LIG   0.0000
  49 H            5.1175    -1.1030     3.7993 H            1    LIG   0.0000
  50 H            4.2930    -1.1336     1.5492 H            1    LIG   0.0000
  51 H            1.7800    -1.2678    -0.0211 H            1    LIG   0.0000
  52 H           -0.8913    -1.8757     0.0014 H            1    LIG   0.0000
  53 H           -2.0702    -2.8064     1.0284 H            1    LIG   0.0000
  54 H           -7.1898    -1.4228    -1.5191 H            1    LIG   0.0000
  55 H           -8.3937    -5.0840     0.9905 H            1    LIG   0.0000
  56 H           -8.6709    -7.3343     1.7659 H            1    LIG   0.0000
  57 H           -6.8757    -8.8972     1.5609 H            1    LIG   0.0000
  58 H           -4.8015    -8.2263     0.5849 H            1    LIG   0.0000
  59 H           -4.5154    -5.9768    -0.1912 H            1    LIG   0.0000
  60 H           -0.3912     3.6537     1.3686 H            1    LIG   0.0000
  61 H           -1.4698     5.5232     2.1644 H            1    LIG   0.0000
  62 H           -2.4968     6.2363     1.1139 H            1    LIG   0.0000
  63 H           -3.0828     5.3653     2.3648 H            1    LIG   0.0000
@<TRIPOS>BOND
   1        1        2 1
   2        2        3 ar
   3        3        4 ar
   4        4        5 ar
   5        5        6 1
   6        6        7 2
   7        7        8 1
   8        8        9 1
   9        9       10 1
  10       10       11 ar
  11       11       12 ar
  12       12       13 ar
  13       13       14 ar
  14       14       15 ar
  15       15       10 ar
  16        8       16 1
  17       16       17 2
  18       17        6 1
  19       17       18 1
  20       18       19 2
  21       19       20 1
  22       20       21 1
  23       21       22 2
  24       22       23 1
  25       23       24 2
  26       24       25 1
  27       25       26 2
  28       26       27 1
  29       27       23 1
  30       27       28 1
  31       28       29 ar
  32       29       30 ar
  33       30       31 ar
  34       31       32 ar
  35       32       33 ar
  36       33       28 ar
  37       24       34 1
  38       34       20 1
  39       34       35 2
  40        5       36 ar
  41       36       37 ar
  42       37        2 ar
  43       37       38 1
  44        1       39 1
  45        1       40 1
  46        1       41 1
  47        3       42 1
  48        4       43 1
  49        9       44 1
  50        9       45 1
  51       11       46 1
  52       12       47 1
  53       13       48 1
  54       14       49 1
  55       15       50 1
  56       16       51 1
  57       18       52 1
  58       21       53 1
  59       25       54 1
  60       29       55 1
  61       30       56 1
  62       31       57 1
  63       32       58 1
  64       33       59 1
  65       36       60 1
  66       38       61 1
  67       38       62 1
  68       38       63 1

@<TRIPOS>MOLECULE

  63   68
SMALL
USER_CHARGES
@<TRIPOS>ATOM
   1 C1          -4.6525     4.7271     0.0464 C.3          1    LIG   0.0000
   2 C2          -3.4237     3.8320     0.0589 C.ar         1    LIG   0.0000
   3 C3          -2.3297     4.1926    -0.7205 C.ar         1    LIG   0.0000
   4 C4          -1.1850     3.4031    -0.7395 C.ar         1    LIG   0.0000
   5 C5          -1.1504     2.2474     0.0335 C.ar         1    LIG   0.0000
   6 C6           0.0412     1.4218     0.0169 C.2          1    LIG   0.0000
   7 N7           1.2849     1.8421     0.0079 N.2          1    LIG   0.0000
   8 N8           2.1146     0.8240    -0.0087 N.pl3        1    LIG   0.0000
   9 C9           3.5813     0.9143    -0.0260 C.3          1    LIG   0.0000
  10 C10          4.0696     0.9546    -1.4651 C.ar         1    LIG   0.0000
  11 C11          4.3648    -0.2337    -2.1252 C.ar         1    LIG   0.0000
  12 C12          4.8117    -0.1875    -3.4416 C.ar         1    LIG   0.0000
  13 C13          4.9589     1.0379    -4.0843 C.ar         1    LIG   0.0000
  14 C14          4.6611     2.2213    -3.4166 C.ar         1    LIG   0.0000
  15 C15          4.2142     2.1841    -2.0996 C.ar         1    LIG   0.0000
  16 C16          1.4086    -0.3394    -0.0105 C.2          1    LIG   0.0000
  17 C17          0.0944     0.0161     0.0052 C.2          1    LIG   0.0000
  18 C18         -1.0396    -0.8868     0.0108 C.2          1    LIG   0.0000
  19 N19         -2.2027    -0.4293     0.0275 N.2          1    LIG   0.0000
  20 N20         -3.1660    -1.3769     0.0308 N.pl3        1    LIG   0.0000
  21 C21         -3.2488    -2.3026     1.0398 C.2          1    LIG   0.0000
  22 N22         -4.1948    -3.2252     1.0323 N.2          1    LIG   0.0000
  23 C23         -5.1289    -3.3044     0.0303 C.2          1    LIG   0.0000
  24 C24         -5.0808    -2.4100    -0.9834 C.2          1    LIG   0.0000
  25 C25         -6.1476    -2.7239    -1.8588 C.2          1    LIG   0.0000
  26 N26         -6.7673    -3.7614    -1.3480 N.2          1    LIG   0.0000
  27 N27         -6.1847    -4.1279    -0.2276 N.pl3        1    LIG   0.0000
  28 C28         -6.5888    -5.2017     0.5752 C.ar         1    LIG   0.0000
  29 C29         -5.6511    -6.1415     0.9906 C.ar         1    LIG   0.0000
  30 C30         -6.0615    -7.2053     1.7872 C.ar         1    LIG   0.0000
  31 C31         -7.3971    -7.3210     2.1605 C.ar         1    LIG   0.0000
  32 C32         -8.3279    -6.3764     1.7406 C.ar         1    LIG   0.0000
  33 C33         -7.9259    -5.3096     0.9431 C.ar         1    LIG   0.0000
  34 C34         -4.0731    -1.4092    -0.9972 C.2          1    LIG   0.0000
  35 O35         -4.0080    -0.5900    -1.9002 O.2          1    LIG   0.0000
  36 C36         -2.2378     1.8759     0.8172 C.ar         1    LIG   0.0000
  37 C37         -3.3775     2.6732     0.8281 C.ar         1    LIG   0.0000
  38 C38         -4.5539     2.2479     1.6920 C.3          1    LIG   0.0000
  39 H           -4.4927     5.5041    -0.5625 H            1    LIG   0.0000
  40 H           -5.4414     4.2056    -0.2787 H            1    LIG   0.0000
  41 H           -4.8316     5.0603     0.9721 H            1    LIG   0.0000
  42 H           -2.3665     5.0262    -1.2716 H            1    LIG   0.0000
  43 H           -0.3988     3.6623    -1.3004 H            1    LIG   0.0000
  44 H            3.9698     0.1168     0.4356 H            1    LIG   0.0000
  45 H            3.8696     1.7467     0.4473 H            1    LIG   0.0000
  46 H            4.2569    -1.1115    -1.6585 H            1    LIG   0.0000
  47 H            5.0272    -1.0352    -3.9262 H            1    LIG   0.0000
  48 H            5.2804     1.0679    -5.0308 H            1    LIG   0.0000
  49 H            4.7683     3.0992    -3.8834 H            1    LIG   0.0000
  50 H            3.9993     3.0317    -1.6145 H            1    LIG   0.0000
  51 H            1.7800    -1.2678    -0.0211 H            1    LIG   0.0000
  52 H           -0.8913    -1.8757     0.0014 H            1    LIG   0.0000
  53 H           -2.5864    -2.2790     1.7886 H            1    LIG   0.0000
  54 H           -6.3839    -2.2463    -2.7050 H            1    LIG   0.0000
  55 H           -4.6926    -6.0532     0.7196 H            1    LIG   0.0000
  56 H           -5.3965    -7.8872     2.0918 H            1    LIG   0.0000
  57 H           -7.6891    -8.0870     2.7333 H            1    LIG   0.0000
  58 H           -9.2863    -6.4642     2.0121 H            1    LIG   0.0000
  59 H           -8.5909    -4.6280     0.6377 H            1    LIG   0.0000
  60 H           -2.2005     1.0423     1.3683 H            1    LIG   0.0000
  61 H           -4.3294     1.3959     2.1648 H            1    LIG   0.0000
  62 H           -4.7483     2.9614     2.3652 H            1    LIG   0.0000
  63 H           -5.3579     2.1068     1.1143 H            1    LIG   0.0000
@<TRIPOS>BOND
   1        1        2 1
   2        2        3 ar
   3        3        4 ar
   4        4        5 ar
   5        5        6 1
   6        6        7 2
   7        7        8 1
   8        8        9 1
   9        9       10 1
  10       10       11 ar
  11       11       12 ar
  12       12       13 ar
  13       13       14 ar
  14       14       15 ar
  15       15       10 ar
  16        8       16 1
  17       16       17 2
  18       17        6 1
  19       17       18 1
  20       18       19 2
  21       19       20 1
  22       20       21 1
  23       21       22 2
  24       22       23 1
  25       23       24 2
  26       24       25 1
  27       25       26 2
  28       26       27 1
  29       27       23 1
  30       27       28 1
  31       28       29 ar
  32       29       30 ar
  33       30       31 ar
  34       31       32 ar
  35       32       33 ar
  36       33       28 ar
  37       24       34 1
  38       34       20 1
  39       34       35 2
  40        5       36 ar
  41       36       37 ar
  42       37        2 ar
  43       37       38 1
  44        1       39 1
  45        1       40 1
  46        1       41 1
  47        3       42 1
  48        4       43 1
  49        9       44 1
  50        9       45 1
  51       11       46 1
  52       12       47 1
  53       13       48 1
  54       14       49 1
  55       15       50 1
  56       16       51 1
  57       18       52 1
  58       21       53 1
  59       25       54 1
  60       29       55 1
  61       30       56 1
  62       31       57 1
  63       32       58 1
  64       33       59 1
  65       36       60 1
  66       38       61 1
  67       38       62 1
  68       38       63 1

@<TRIPOS>MOLECULE

  63   68
SMALL
USER_CHARGES
@<TRIPOS>ATOM
   1 C1          -4.6525     4.7271     0.0464 C.3          1    LIG   0.0000
   2 C2          -3.4237     3.8320     0.0589 C.ar         1    LIG   0.0000
   3 C3          -2.3297     4.1926    -0.7205 C.ar         1    LIG   0.0000
   4 C4          -1.1850     3.4031    -0.7395 C.ar         1    LIG   0.0000
   5 C5          -1.1504     2.2474     0.0335 C.ar         1    LIG   0.0000
   6 C6           0.0412     1.4218     0.0169 C.2          1    LIG   0.0000
   7 N7           1.2849     1.8421     0.0079 N.2          1    LIG   0.0000
   8 N8           2.1146     0.8240    -0.0087 N.pl3        1    LIG   0.0000
   9 C9           3.5813     0.9143    -0.0260 C.3          1    LIG   0.0000
  10 C10          4.1045     0.9362     1.4012 C.ar         1    LIG   0.0000
  11 C11          4.2672     2.1527     2.0559 C.ar         1    LIG   0.0000
  12 C12          4.7471     2.1636     3.3613 C.ar         1    LIG   0.0000
  13 C13          5.0586     0.9664     3.9987 C.ar         1    LIG   0.0000
  14 C14          4.8925    -0.2456     3.3365 C.ar         1    LIG   0.0000
  15 C15          4.4137    -0.2653     2.0304 C.ar         1    LIG   0.0000
  16 C16          1.4086    -0.3394    -0.0105 C.2          1    LIG   0.0000
  17 C17          0.0944     0.0161     0.0052 C.2          1    LIG   0.0000
  18 C18         -1.0396    -0.8868     0.0108 C.2          1    LIG   0.0000
  19 N19         -2.2027    -0.4293     0.0275 N.2          1    LIG   0.0000
  20 N20         -3.1660    -1.3769     0.0308 N.pl3        1    LIG   0.0000
  21 C21         -3.2488    -2.3026     1.0398 C.2          1    LIG   0.0000
  22 N22         -4.1948    -3.2252     1.0323 N.2          1    LIG   0.0000
  23 C23         -5.1289    -3.3044     0.0303 C.2          1    LIG   0.0000
  24 C24         -5.0808    -2.4100    -0.9834 C.2          1    LIG   0.0000
  25 C25         -6.1476    -2.7239    -1.8588 C.2          1    LIG   0.0000
  26 N26         -6.7673    -3.7614    -1.3480 N.2          1    LIG   0.0000
  27 N27         -6.1847    -4.1279    -0.2276 N.pl3        1    LIG   0.0000
  28 C28         -6.5888    -5.2017     0.5752 C.ar         1    LIG   0.0000
  29 C29         -5.6511    -6.1415     0.9906 C.ar         1    LIG   0.0000
  30 C30         -6.0615    -7.2053     1.7872 C.ar         1    LIG   0.0000
  31 C31         -7.3971    -7.3210     2.1605 C.ar         1    LIG   0.0000
  32 C32         -8.3279    -6.3764     1.7406 C.ar         1    LIG   0.0000
  33 C33         -7.9259    -5.3096     0.9431 C.ar         1    LIG   0.0000
  34 C34         -4.0731    -1.4092    -0.9972 C.2          1    LIG   0.0000
  35 O35         -4.0080    -0.5900    -1.9002 O.2          1    LIG   0.0000
  36 C36         -2.2378     1.8759     0.8172 C.ar         1    LIG   0.0000
  37 C37         -3.3775     2.6732     0.8281 C.ar         1    LIG   0.0000
  38 C38         -4.5539     2.2479     1.6920 C.3          1    LIG   0.0000
  39 H           -4.4927     5.5041    -0.5625 H            1    LIG   0.0000
  40 H           -5.4414     4.2056    -0.2787 H            1    LIG   0.0000
  41 H           -4.8316     5.0603     0.9721 H            1    LIG   0.0000
  42 H           -2.3665     5.0262    -1.2716 H            1    LIG   0.0000
  43 H           -0.3988     3.6623    -1.3004 H            1    LIG   0.0000
  44 H            3.8582     1.7527    -0.4954 H            1    LIG   0.0000
  45 H            3.9583     0.1228    -0.5071 H            1    LIG   0.0000
  46 H            4.0416     3.0100     1.5931 H            1    LIG   0.0000
  47 H            4.8684     3.0320     3.8420 H            1    LIG   0.0000
  48 H            5.4034     0.9774     4.9373 H            1    LIG   0.0000
  49 H            5.1175    -1.1030     3.7993 H            1    LIG   0.0000
  50 H            4.2930    -1.1336     1.5492 H            1    LIG   0.0000
  51 H            1.7800    -1.2678    -0.0211 H            1    LIG   0.0000
  52 H           -0.8913    -1.8757     0.0014 H            1    LIG   0.0000
  53 H           -2.5864    -2.2790     1.7886 H            1    LIG   0.0000
  54 H           -6.3839    -2.2463    -2.7050 H            1    LIG   0.0000
  55 H           -4.6926    -6.0532     0.7196 H            1    LIG   0.0000
  56 H           -5.3965    -7.8872     2.0918 H            1    LIG   0.0000
  57 H           -7.6891    -8.0870     2.7333 H            1    LIG   0.0000
  58 H           -9.2863    -6.4642     2.0121 H            1    LIG   0.0000
  59 H           -8.5909    -4.6280     0.6377 H            1    LIG   0.0000
  60 H           -2.2005     1.0423     1.3683 H            1    LIG   0.0000
  61 H           -4.3294     1.3959     2.1648 H            1    LIG   0.0000
  62 H           -4.7483     2.9614     2.3652 H            1    LIG   0.0000
  63 H           -5.3579     2.1068     1.1143 H            1    LIG   0.0000
@<TRIPOS>BOND
   1        1        2 1
   2        2        3 ar
   3        3        4 ar
   4        4        5 ar
   5        5        6 1
   6        6        7 2
   7        7        8 1
   8        8        9 1
   9        9       10 1
  10       10       11 ar
  11       11       12 ar
  12       12       13 ar
  13       13       14 ar
  14       14       15 ar
  15       15       10 ar
  16        8       16 1
  17       16       17 2
  18       17        6 1
  19       17       18 1
  20       18       19 2
  21       19       20 1
  22       20       21 1
  23       21       22 2
  24       22       23 1
  25       23       24 2
  26       24       25 1
  27       25       26 2
  28       26       27 1
  29       27       23 1
  30       27       28 1
  31       28       29 ar
  32       29       30 ar
  33       30       31 ar
  34       31       32 ar
  35       32       33 ar
  36       33       28 ar
  37       24       34 1
  38       34       20 1
  39       34       35 2
  40        5       36 ar
  41       36       37 ar
  42       37        2 ar
  43       37       38 1
  44        1       39 1
  45        1       40 1
  46        1       41 1
  47        3       42 1
  48        4       43 1
  49        9       44 1
  50        9       45 1
  51       11       46 1
  52       12       47 1
  53       13       48 1
  54       14       49 1
  55       15       50 1
  56       16       51 1
  57       18       52 1
  58       21       53 1
  59       25       54 1
  60       29       55 1
  61       30       56 1
  62       31       57 1
  63       32       58 1
  64       33       59 1
  65       36       60 1
  66       38       61 1
  67       38       62 1
  68       38       63 1

@<TRIPOS>MOLECULE

  63   68
SMALL
USER_CHARGES
@<TRIPOS>ATOM
   1 C1          -4.7017     4.6546     0.1189 C.3          1    LIG   0.0000
   2 C2          -3.4325     3.8190     0.0716 C.ar         1    LIG   0.0000
   3 C3          -3.3712     2.6580     0.8348 C.ar         1    LIG   0.0000
   4 C4          -2.2299     1.8636     0.8220 C.ar         1    LIG   0.0000
   5 C5          -1.1504     2.2474     0.0335 C.ar         1    LIG   0.0000
   6 C6           0.0412     1.4218     0.0169 C.2          1    LIG   0.0000
   7 N7           1.2849     1.8421     0.0079 N.2          1    LIG   0.0000
   8 N8           2.1146     0.8240    -0.0087 N.pl3        1    LIG   0.0000
   9 C9           3.5813     0.9143    -0.0260 C.3          1    LIG   0.0000
  10 C10          4.0696     0.9546    -1.4651 C.ar         1    LIG   0.0000
  11 C11          4.3648    -0.2337    -2.1252 C.ar         1    LIG   0.0000
  12 C12          4.8117    -0.1875    -3.4416 C.ar         1    LIG   0.0000
  13 C13          4.9589     1.0379    -4.0843 C.ar         1    LIG   0.0000
  14 C14          4.6611     2.2213    -3.4166 C.ar         1    LIG   0.0000
  15 C15          4.2142     2.1841    -2.0996 C.ar         1    LIG   0.0000
  16 C16          1.4086    -0.3394    -0.0105 C.2          1    LIG   0.0000
  17 C17          0.0944     0.0161     0.0052 C.2          1    LIG   0.0000
  18 C18         -1.0396    -0.8868     0.0108 C.2          1    LIG   0.0000
  19 N19         -2.2027    -0.4293     0.0275 N.2          1    LIG   0.0000
  20 N20         -3.1660    -1.3769     0.0308 N.pl3        1    LIG   0.0000
  21 C21         -4.0965    -1.4479    -0.9746 C.2          1    LIG   0.0000
  22 N22         -5.0345    -2.3786    -0.9605 N.2          1    LIG   0.0000
  23 C23         -5.1255    -3.3079     0.0450 C.2          1    LIG   0.0000
  24 C24         -4.2268    -3.2709     1.0554 C.2          1    LIG   0.0000
  25 C25         -4.5552    -4.3294     1.9357 C.2          1    LIG   0.0000
  26 N26         -5.6044    -4.9337     1.4306 N.2          1    LIG   0.0000
  27 N27         -5.9653    -4.3491     0.3094 N.pl3        1    LIG   0.0000
  28 C28         -7.0484    -4.7382    -0.4881 C.ar         1    LIG   0.0000
  29 C29         -7.3077    -6.0906    -0.6846 C.ar         1    LIG   0.0000
  30 C30         -8.3853    -6.4680    -1.4789 C.ar         1    LIG   0.0000
  31 C31         -9.1907    -5.4974    -2.0669 C.ar         1    LIG   0.0000
  32 C32         -8.9241    -4.1471    -1.8648 C.ar         1    LIG   0.0000
  33 C33         -7.8478    -3.7610    -1.0722 C.ar         1    LIG   0.0000
  34 C34         -3.2096    -2.2798     1.0621 C.2          1    LIG   0.0000
  35 O35         -2.3863    -2.2250     1.9621 O.2          1    LIG   0.0000
  36 C36         -1.1992     3.4061    -0.7344 C.ar         1    LIG   0.0000
  37 C37         -2.3461     4.1930    -0.7135 C.ar         1    LIG   0.0000
  38 C38         -2.3773     5.4550    -1.5605 C.3          1    LIG   0.0000
  39 H           -5.3615     4.2240     0.7347 H            1    LIG   0.0000
  40 H           -4.4845     5.5721     0.4519 H            1    LIG   0.0000
  41 H           -5.0939     4.7173    -0.7989 H            1    LIG   0.0000
  42 H           -4.1542     2.3923     1.3973 H            1    LIG   0.0000
  43 H           -2.1860     1.0291     1.3714 H            1    LIG   0.0000
  44 H            3.9698     0.1168     0.4356 H            1    LIG   0.0000
  45 H            3.8696     1.7467     0.4473 H            1    LIG   0.0000
  46 H            4.2569    -1.1115    -1.6585 H            1    LIG   0.0000
  47 H            5.0272    -1.0352    -3.9262 H            1    LIG   0.0000
  48 H            5.2804     1.0679    -5.0308 H            1    LIG   0.0000
  49 H            4.7683     3.0992    -3.8834 H            1    LIG   0.0000
  50 H            3.9993     3.0317    -1.6145 H            1    LIG   0.0000
  51 H            1.7800    -1.2678    -0.0211 H            1    LIG   0.0000
  52 H           -0.8913    -1.8757     0.0014 H            1    LIG   0.0000
  53 H           -4.0647    -0.7887    -1.7258 H            1    LIG   0.0000
  54 H           -4.0785    -4.5706     2.7810 H            1    LIG   0.0000
  55 H           -6.7259    -6.7839    -0.2594 H            1    LIG   0.0000
  56 H           -8.5814    -7.4373    -1.6276 H            1    LIG   0.0000
  57 H           -9.9647    -5.7718    -2.6375 H            1    LIG   0.0000
  58 H           -9.5063    -3.4537    -2.2893 H            1    LIG   0.0000
  59 H           -7.6511    -2.7918    -0.9240 H            1    LIG   0.0000
  60 H           -0.4161     3.6713    -1.2970 H            1    LIG   0.0000
  61 H           -1.5097     5.5504    -2.0486 H            1    LIG   0.0000
  62 H           -3.1261     5.3950    -2.2205 H            1    LIG   0.0000
  63 H           -2.5165     6.2496    -0.9697 H            1    LIG   0.0000
@<TRIPOS>BOND
   1        1        2 1
   2        2        3 ar
   3        3        4 ar
   4        4        5 ar
   5        5        6 1
   6        6        7 2
   7        7        8 1
   8        8        9 1
   9        9       10 1
  10       10       11 ar
  11       11       12 ar
  12       12       13 ar
  13       13       14 ar
  14       14       15 ar
  15       15       10 ar
  16        8       16 1
  17       16       17 2
  18       17        6 1
  19       17       18 1
  20       18       19 2
  21       19       20 1
  22       20       21 1
  23       21       22 2
  24       22       23 1
  25       23       24 2
  26       24       25 1
  27       25       26 2
  28       26       27 1
  29       27       23 1
  30       27       28 1
  31       28       29 ar
  32       29       30 ar
  33       30       31 ar
  34       31       32 ar
  35       32       33 ar
  36       33       28 ar
  37       24       34 1
  38       34       20 1
  39       34       35 2
  40        5       36 ar
  41       36       37 ar
  42       37        2 ar
  43       37       38 1
  44        1       39 1
  45        1       40 1
  46        1       41 1
  47        3       42 1
  48        4       43 1
  49        9       44 1
  50        9       45 1
  51       11       46 1
  52       12       47 1
  53       13       48 1
  54       14       49 1
  55       15       50 1
  56       16       51 1
  57       18       52 1
  58       21       53 1
  59       25       54 1
  60       29       55 1
  61       30       56 1
  62       31       57 1
  63       32       58 1
  64       33       59 1
  65       36       60 1
  66       38       61 1
  67       38       62 1
  68       38       63 1

@<TRIPOS>MOLECULE

  63   68
SMALL
USER_CHARGES
@<TRIPOS>ATOM
   1 C1          -4.7017     4.6546     0.1189 C.3          1    LIG   0.0000
   2 C2          -3.4325     3.8190     0.0716 C.ar         1    LIG   0.0000
   3 C3          -3.3712     2.6580     0.8348 C.ar         1    LIG   0.0000
   4 C4          -2.2299     1.8636     0.8220 C.ar         1    LIG   0.0000
   5 C5          -1.1504     2.2474     0.0335 C.ar         1    LIG   0.0000
   6 C6           0.0412     1.4218     0.0169 C.2          1    LIG   0.0000
   7 N7           1.2849     1.8421     0.0079 N.2          1    LIG   0.0000
   8 N8           2.1146     0.8240    -0.0087 N.pl3        1    LIG   0.0000
   9 C9           3.5813     0.9143    -0.0260 C.3          1    LIG   0.0000
  10 C10          4.1045     0.9362     1.4012 C.ar         1    LIG   0.0000
  11 C11          4.2672     2.1527     2.0559 C.ar         1    LIG   0.0000
  12 C12          4.7471     2.1636     3.3613 C.ar         1    LIG   0.0000
  13 C13          5.0586     0.9664     3.9987 C.ar         1    LIG   0.0000
  14 C14          4.8925    -0.2456     3.3365 C.ar         1    LIG   0.0000
  15 C15          4.4137    -0.2653     2.0304 C.ar         1    LIG   0.0000
  16 C16          1.4086    -0.3394    -0.0105 C.2          1    LIG   0.0000
  17 C17          0.0944     0.0161     0.0052 C.2          1    LIG   0.0000
  18 C18         -1.0396    -0.8868     0.0108 C.2          1    LIG   0.0000
  19 N19         -2.2027    -0.4293     0.0275 N.2          1    LIG   0.0000
  20 N20         -3.1660    -1.3769     0.0308 N.pl3        1    LIG   0.0000
  21 C21         -4.0965    -1.4479    -0.9746 C.2          1    LIG   0.0000
  22 N22         -5.0345    -2.3786    -0.9605 N.2          1    LIG   0.0000
  23 C23         -5.1255    -3.3079     0.0450 C.2          1    LIG   0.0000
  24 C24         -4.2268    -3.2709     1.0554 C.2          1    LIG   0.0000
  25 C25         -4.5552    -4.3294     1.9357 C.2          1    LIG   0.0000
  26 N26         -5.6044    -4.9337     1.4306 N.2          1    LIG   0.0000
  27 N27         -5.9653    -4.3491     0.3094 N.pl3        1    LIG   0.0000
  28 C28         -7.0484    -4.7382    -0.4881 C.ar         1    LIG   0.0000
  29 C29         -7.3077    -6.0906    -0.6846 C.ar         1    LIG   0.0000
  30 C30         -8.3853    -6.4680    -1.4789 C.ar         1    LIG   0.0000
  31 C31         -9.1907    -5.4974    -2.0669 C.ar         1    LIG   0.0000
  32 C32         -8.9241    -4.1471    -1.8648 C.ar         1    LIG   0.0000
  33 C33         -7.8478    -3.7610    -1.0722 C.ar         1    LIG   0.0000
  34 C34         -3.2096    -2.2798     1.0621 C.2          1    LIG   0.0000
  35 O35         -2.3863    -2.2250     1.9621 O.2          1    LIG   0.0000
  36 C36         -1.1992     3.4061    -0.7344 C.ar         1    LIG   0.0000
  37 C37         -2.3461     4.1930    -0.7135 C.ar         1    LIG   0.0000
  38 C38         -2.3773     5.4550    -1.5605 C.3          1    LIG   0.0000
  39 H           -5.3615     4.2240     0.7347 H            1    LIG   0.0000
  40 H           -4.4845     5.5721     0.4519 H            1    LIG   0.0000
  41 H           -5.0939     4.7173    -0.7989 H            1    LIG   0.0000
  42 H           -4.1542     2.3923     1.3973 H            1    LIG   0.0000
  43 H           -2.1860     1.0291     1.3714 H            1    LIG   0.0000
  44 H            3.8582     1.7527    -0.4954 H            1    LIG   0.0000
  45 H            3.9583     0.1228    -0.5071 H            1    LIG   0.0000
  46 H            4.0416     3.0100     1.5931 H            1    LIG   0.0000
  47 H            4.8684     3.0320     3.8420 H            1    LIG   0.0000
  48 H            5.4034     0.9774     4.9373 H            1    LIG   0.0000
  49 H            5.1175    -1.1030     3.7993 H            1    LIG   0.0000
  50 H            4.2930    -1.1336     1.5492 H            1    LIG   0.0000
  51 H            1.7800    -1.2678    -0.0211 H            1    LIG   0.0000
  52 H           -0.8913    -1.8757     0.0014 H            1    LIG   0.0000
  53 H           -4.0647    -0.7887    -1.7258 H            1    LIG   0.0000
  54 H           -4.0785    -4.5706     2.7810 H            1    LIG   0.0000
  55 H           -6.7259    -6.7839    -0.2594 H            1    LIG   0.0000
  56 H           -8.5814    -7.4373    -1.6276 H            1    LIG   0.0000
  57 H           -9.9647    -5.7718    -2.6375 H            1    LIG   0.0000
  58 H           -9.5063    -3.4537    -2.2893 H            1    LIG   0.0000
  59 H           -7.6511    -2.7918    -0.9240 H            1    LIG   0.0000
  60 H           -0.4161     3.6713    -1.2970 H            1    LIG   0.0000
  61 H           -1.5097     5.5504    -2.0486 H            1    LIG   0.0000
  62 H           -3.1261     5.3950    -2.2205 H            1    LIG   0.0000
  63 H           -2.5165     6.2496    -0.9697 H            1    LIG   0.0000
@<TRIPOS>BOND
   1        1        2 1
   2        2        3 ar
   3        3        4 ar
   4        4        5 ar
   5        5        6 1
   6        6        7 2
   7        7        8 1
   8        8        9 1
   9        9       10 1
  10       10       11 ar
  11       11       12 ar
  12       12       13 ar
  13       13       14 ar
  14       14       15 ar
  15       15       10 ar
  16        8       16 1
  17       16       17 2
  18       17        6 1
  19       17       18 1
  20       18       19 2
  21       19       20 1
  22       20       21 1
  23       21       22 2
  24       22       23 1
  25       23       24 2
  26       24       25 1
  27       25       26 2
  28       26       27 1
  29       27       23 1
  30       27       28 1
  31       28       29 ar
  32       29       30 ar
  33       30       31 ar
  34       31       32 ar
  35       32       33 ar
  36       33       28 ar
  37       24       34 1
  38       34       20 1
  39       34       35 2
  40        5       36 ar
  41       36       37 ar
  42       37        2 ar
  43       37       38 1
  44        1       39 1
  45        1       40 1
  46        1       41 1
  47        3       42 1
  48        4       43 1
  49        9       44 1
  50        9       45 1
  51       11       46 1
  52       12       47 1
  53       13       48 1
  54       14       49 1
  55       15       50 1
  56       16       51 1
  57       18       52 1
  58       21       53 1
  59       25       54 1
  60       29       55 1
  61       30       56 1
  62       31       57 1
  63       32       58 1
  64       33       59 1
  65       36       60 1
  66       38       61 1
  67       38       62 1
  68       38       63 1

@<TRIPOS>MOLECULE

  63   68
SMALL
USER_CHARGES
@<TRIPOS>ATOM
   1 C1          -4.6525     4.7271     0.0464 C.3          1    LIG   0.0000
   2 C2          -3.4237     3.8320     0.0589 C.ar         1    LIG   0.0000
   3 C3          -2.3297     4.1926    -0.7205 C.ar         1    LIG   0.0000
   4 C4          -1.1850     3.4031    -0.7395 C.ar         1    LIG   0.0000
   5 C5          -1.1504     2.2474     0.0335 C.ar         1    LIG   0.0000
   6 C6           0.0412     1.4218     0.0169 C.2          1    LIG   0.0000
   7 N7           1.2849     1.8421     0.0079 N.2          1    LIG   0.0000
   8 N8           2.1146     0.8240    -0.0087 N.pl3        1    LIG   0.0000
   9 C9           3.5813     0.9143    -0.0260 C.3          1    LIG   0.0000
  10 C10          4.0696     0.9546    -1.4651 C.ar         1    LIG   0.0000
  11 C11          4.3648    -0.2337    -2.1252 C.ar         1    LIG   0.0000
  12 C12          4.8117    -0.1875    -3.4416 C.ar         1    LIG   0.0000
  13 C13          4.9589     1.0379    -4.0843 C.ar         1    LIG   0.0000
  14 C14          4.6611     2.2213    -3.4166 C.ar         1    LIG   0.0000
  15 C15          4.2142     2.1841    -2.0996 C.ar         1    LIG   0.0000
  16 C16          1.4086    -0.3394    -0.0105 C.2          1    LIG   0.0000
  17 C17          0.0944     0.0161     0.0052 C.2          1    LIG   0.0000
  18 C18         -1.0396    -0.8868     0.0108 C.2          1    LIG   0.0000
  19 N19         -2.2027    -0.4293     0.0275 N.2          1    LIG   0.0000
  20 N20         -3.1660    -1.3769     0.0308 N.pl3        1    LIG   0.0000
  21 C21         -4.0965    -1.4479    -0.9746 C.2          1    LIG   0.0000
  22 N22         -5.0345    -2.3786    -0.9605 N.2          1    LIG   0.0000
  23 C23         -5.1255    -3.3079     0.0450 C.2          1    LIG   0.0000
  24 C24         -4.2268    -3.2709     1.0554 C.2          1    LIG   0.0000
  25 C25         -4.5552    -4.3294     1.9357 C.2          1    LIG   0.0000
  26 N26         -5.6044    -4.9337     1.4306 N.2          1    LIG   0.0000
  27 N27         -5.9653    -4.3491     0.3094 N.pl3        1    LIG   0.0000
  28 C28         -7.0484    -4.7382    -0.4881 C.ar         1    LIG   0.0000
  29 C29         -8.2383    -5.1353     0.1131 C.ar         1    LIG   0.0000
  30 C30         -9.3088    -5.5209    -0.6869 C.ar         1    LIG   0.0000
  31 C31         -9.1831    -5.5065    -2.0727 C.ar         1    LIG   0.0000
  32 C32         -7.9895    -5.1077    -2.6654 C.ar         1    LIG   0.0000
  33 C33         -6.9136    -4.7211    -1.8725 C.ar         1    LIG   0.0000
  34 C34         -3.2096    -2.2798     1.0621 C.2          1    LIG   0.0000
  35 O35         -2.3863    -2.2250     1.9621 O.2          1    LIG   0.0000
  36 C36         -2.2378     1.8759     0.8172 C.ar         1    LIG   0.0000
  37 C37         -3.3775     2.6732     0.8281 C.ar         1    LIG   0.0000
  38 C38         -4.5539     2.2479     1.6920 C.3          1    LIG   0.0000
  39 H           -4.4927     5.5041    -0.5625 H            1    LIG   0.0000
  40 H           -5.4414     4.2056    -0.2787 H            1    LIG   0.0000
  41 H           -4.8316     5.0603     0.9721 H            1    LIG   0.0000
  42 H           -2.3665     5.0262    -1.2716 H            1    LIG   0.0000
  43 H           -0.3988     3.6623    -1.3004 H            1    LIG   0.0000
  44 H            3.9698     0.1168     0.4356 H            1    LIG   0.0000
  45 H            3.8696     1.7467     0.4473 H            1    LIG   0.0000
  46 H            4.2569    -1.1115    -1.6585 H            1    LIG   0.0000
  47 H            5.0272    -1.0352    -3.9262 H            1    LIG   0.0000
  48 H            5.2804     1.0679    -5.0308 H            1    LIG   0.0000
  49 H            4.7683     3.0992    -3.8834 H            1    LIG   0.0000
  50 H            3.9993     3.0317    -1.6145 H            1    LIG   0.0000
  51 H            1.7800    -1.2678    -0.0211 H            1    LIG   0.0000
  52 H           -0.8913    -1.8757     0.0014 H            1    LIG   0.0000
  53 H           -4.0647    -0.7887    -1.7258 H            1    LIG   0.0000
  54 H           -4.0785    -4.5706     2.7810 H            1    LIG   0.0000
  55 H           -8.3231    -5.1435     1.1094 H            1    LIG   0.0000
  56 H          -10.1691    -5.8086    -0.2660 H            1    LIG   0.0000
  57 H           -9.9545    -5.7843    -2.6452 H            1    LIG   0.0000
  58 H           -7.9047    -5.0988    -3.6618 H            1    LIG   0.0000
  59 H           -6.0530    -4.4341    -2.2932 H            1    LIG   0.0000
  60 H           -2.2005     1.0423     1.3683 H            1    LIG   0.0000
  61 H           -4.3294     1.3959     2.1648 H            1    LIG   0.0000
  62 H           -4.7483     2.9614     2.3652 H            1    LIG   0.0000
  63 H           -5.3579     2.1068     1.1143 H            1    LIG   0.0000
@<TRIPOS>BOND
   1        1        2 1
   2        2        3 ar
   3        3        4 ar
   4        4        5 ar
   5        5        6 1
   6        6        7 2
   7        7        8 1
   8        8        9 1
   9        9       10 1
  10       10       11 ar
  11       11       12 ar
  12       12       13 ar
  13       13       14 ar
  14       14       15 ar
  15       15       10 ar
  16        8       16 1
  17       16       17 2
  18       17        6 1
  19       17       18 1
  20       18       19 2
  21       19       20 1
  22       20       21 1
  23       21       22 2
  24       22       23 1
  25       23       24 2
  26       24       25 1
  27       25       26 2
  28       26       27 1
  29       27       23 1
  30       27       28 1
  31       28       29 ar
  32       29       30 ar
  33       30       31 ar
  34       31       32 ar
  35       32       33 ar
  36       33       28 ar
  37       24       34 1
  38       34       20 1
  39       34       35 2
  40        5       36 ar
  41       36       37 ar
  42       37        2 ar
  43       37       38 1
  44        1       39 1
  45        1       40 1
  46        1       41 1
  47        3       42 1
  48        4       43 1
  49        9       44 1
  50        9       45 1
  51       11       46 1
  52       12       47 1
  53       13       48 1
  54       14       49 1
  55       15       50 1
  56       16       51 1
  57       18       52 1
  58       21       53 1
  59       25       54 1
  60       29       55 1
  61       30       56 1
  62       31       57 1
  63       32       58 1
  64       33       59 1
  65       36       60 1
  66       38       61 1
  67       38       62 1
  68       38       63 1

@<TRIPOS>MOLECULE

  63   68
SMALL
USER_CHARGES
@<TRIPOS>ATOM
   1 C1          -4.6525     4.7271     0.0464 C.3          1    LIG   0.0000
   2 C2          -3.4237     3.8320     0.0589 C.ar         1    LIG   0.0000
   3 C3          -2.3297     4.1926    -0.7205 C.ar         1    LIG   0.0000
   4 C4          -1.1850     3.4031    -0.7395 C.ar         1    LIG   0.0000
   5 C5          -1.1504     2.2474     0.0335 C.ar         1    LIG   0.0000
   6 C6           0.0412     1.4218     0.0169 C.2          1    LIG   0.0000
   7 N7           1.2849     1.8421     0.0079 N.2          1    LIG   0.0000
   8 N8           2.1146     0.8240    -0.0087 N.pl3        1    LIG   0.0000
   9 C9           3.5813     0.9143    -0.0260 C.3          1    LIG   0.0000
  10 C10          4.1045     0.9362     1.4012 C.ar         1    LIG   0.0000
  11 C11          4.2672     2.1527     2.0559 C.ar         1    LIG   0.0000
  12 C12          4.7471     2.1636     3.3613 C.ar         1    LIG   0.0000
  13 C13          5.0586     0.9664     3.9987 C.ar         1    LIG   0.0000
  14 C14          4.8925    -0.2456     3.3365 C.ar         1    LIG   0.0000
  15 C15          4.4137    -0.2653     2.0304 C.ar         1    LIG   0.0000
  16 C16          1.4086    -0.3394    -0.0105 C.2          1    LIG   0.0000
  17 C17          0.0944     0.0161     0.0052 C.2          1    LIG   0.0000
  18 C18         -1.0396    -0.8868     0.0108 C.2          1    LIG   0.0000
  19 N19         -2.2027    -0.4293     0.0275 N.2          1    LIG   0.0000
  20 N20         -3.1660    -1.3769     0.0308 N.pl3        1    LIG   0.0000
  21 C21         -4.0965    -1.4479    -0.9746 C.2          1    LIG   0.0000
  22 N22         -5.0345    -2.3786    -0.9605 N.2          1    LIG   0.0000
  23 C23         -5.1255    -3.3079     0.0450 C.2          1    LIG   0.0000
  24 C24         -4.2268    -3.2709     1.0554 C.2          1    LIG   0.0000
  25 C25         -4.5552    -4.3294     1.9357 C.2          1    LIG   0.0000
  26 N26         -5.6044    -4.9337     1.4306 N.2          1    LIG   0.0000
  27 N27         -5.9653    -4.3491     0.3094 N.pl3        1    LIG   0.0000
  28 C28         -7.0484    -4.7382    -0.4881 C.ar         1    LIG   0.0000
  29 C29         -8.2383    -5.1353     0.1131 C.ar         1    LIG   0.0000
  30 C30         -9.3088    -5.5209    -0.6869 C.ar         1    LIG   0.0000
  31 C31         -9.1831    -5.5065    -2.0727 C.ar         1    LIG   0.0000
  32 C32         -7.9895    -5.1077    -2.6654 C.ar         1    LIG   0.0000
  33 C33         -6.9136    -4.7211    -1.8725 C.ar         1    LIG   0.0000
  34 C34         -3.2096    -2.2798     1.0621 C.2          1    LIG   0.0000
  35 O35         -2.3863    -2.2250     1.9621 O.2          1    LIG   0.0000
  36 C36         -2.2378     1.8759     0.8172 C.ar         1    LIG   0.0000
  37 C37         -3.3775     2.6732     0.8281 C.ar         1    LIG   0.0000
  38 C38         -4.5539     2.2479     1.6920 C.3          1    LIG   0.0000
  39 H           -4.4927     5.5041    -0.5625 H            1    LIG   0.0000
  40 H           -5.4414     4.2056    -0.2787 H            1    LIG   0.0000
  41 H           -4.8316     5.0603     0.9721 H            1    LIG   0.0000
  42 H           -2.3665     5.0262    -1.2716 H            1    LIG   0.0000
  43 H           -0.3988     3.6623    -1.3004 H            1    LIG   0.0000
  44 H            3.8582     1.7527    -0.4954 H            1    LIG   0.0000
  45 H            3.9583     0.1228    -0.5071 H            1    LIG   0.0000
  46 H            4.0416     3.0100     1.5931 H            1    LIG   0.0000
  47 H            4.8684     3.0320     3.8420 H            1    LIG   0.0000
  48 H            5.4034     0.9774     4.9373 H            1    LIG   0.0000
  49 H            5.1175    -1.1030     3.7993 H            1    LIG   0.0000
  50 H            4.2930    -1.1336     1.5492 H            1    LIG   0.0000
  51 H            1.7800    -1.2678    -0.0211 H            1    LIG   0.0000
  52 H           -0.8913    -1.8757     0.0014 H            1    LIG   0.0000
  53 H           -4.0647    -0.7887    -1.7258 H            1    LIG   0.0000
  54 H           -4.0785    -4.5706     2.7810 H            1    LIG   0.0000
  55 H           -8.3231    -5.1435     1.1094 H            1    LIG   0.0000
  56 H          -10.1691    -5.8086    -0.2660 H            1    LIG   0.0000
  57 H           -9.9545    -5.7843    -2.6452 H            1    LIG   0.0000
  58 H           -7.9047    -5.0988    -3.6618 H            1    LIG   0.0000
  59 H           -6.0530    -4.4341    -2.2932 H            1    LIG   0.0000
  60 H           -2.2005     1.0423     1.3683 H            1    LIG   0.0000
  61 H           -4.3294     1.3959     2.1648 H            1    LIG   0.0000
  62 H           -4.7483     2.9614     2.3652 H            1    LIG   0.0000
  63 H           -5.3579     2.1068     1.1143 H            1    LIG   0.0000
@<TRIPOS>BOND
   1        1        2 1
   2        2        3 ar
   3        3        4 ar
   4        4        5 ar
   5        5        6 1
   6        6        7 2
   7        7        8 1
   8        8        9 1
   9        9       10 1
  10       10       11 ar
  11       11       12 ar
  12       12       13 ar
  13       13       14 ar
  14       14       15 ar
  15       15       10 ar
  16        8       16 1
  17       16       17 2
  18       17        6 1
  19       17       18 1
  20       18       19 2
  21       19       20 1
  22       20       21 1
  23       21       22 2
  24       22       23 1
  25       23       24 2
  26       24       25 1
  27       25       26 2
  28       26       27 1
  29       27       23 1
  30       27       28 1
  31       28       29 ar
  32       29       30 ar
  33       30       31 ar
  34       31       32 ar
  35       32       33 ar
  36       33       28 ar
  37       24       34 1
  38       34       20 1
  39       34       35 2
  40        5       36 ar
  41       36       37 ar
  42       37        2 ar
  43       37       38 1
  44        1       39 1
  45        1       40 1
  46        1       41 1
  47        3       42 1
  48        4       43 1
  49        9       44 1
  50        9       45 1
  51       11       46 1
  52       12       47 1
  53       13       48 1
  54       14       49 1
  55       15       50 1
  56       16       51 1
  57       18       52 1
  58       21       53 1
  59       25       54 1
  60       29       55 1
  61       30       56 1
  62       31       57 1
  63       32       58 1
  64       33       59 1
  65       36       60 1
  66       38       61 1
  67       38       62 1
  68       38       63 1

