@<TRIPOS>MOLECULE
*****
 63 68 0 0 0
SMALL
USER_CHARGES

@<TRIPOS>ATOM
      1 C1         -4.7021    4.6555    0.0458 C.3     1  LIG1        0.0000
      2 C2         -3.4325    3.8193    0.0586 C.3     1  LIG1        0.0000
      3 C3         -3.3857    2.6684   -0.7209 C.3     1  LIG1        0.0000
      4 C4         -2.2447    1.8736   -0.7392 C.3     1  LIG1        0.0000
      5 C5         -1.1504    2.2474    0.0335 C.3     1  LIG1        0.0000
      6 C6          0.0412    1.4218    0.0169 C.2     1  LIG1        0.0000
      7 N7          1.2849    1.8421    0.0079 N.2     1  LIG1        0.0000
      8 N8          2.1146    0.8240   -0.0087 N.pl3   1  LIG1        0.0000
      9 C9          3.5813    0.9143   -0.0260 C.3     1  LIG1        0.0000
     10 C10         4.0696    0.9546   -1.4651 C.3     1  LIG1        0.0000
     11 C11         4.3648   -0.2337   -2.1252 C.3     1  LIG1        0.0000
     12 C12         4.8117   -0.1875   -3.4416 C.3     1  LIG1        0.0000
     13 C13         4.9589    1.0379   -4.0843 C.3     1  LIG1        0.0000
     14 C14         4.6611    2.2213   -3.4166 C.3     1  LIG1        0.0000
     15 C15         4.2142    2.1841   -2.0996 C.3     1  LIG1        0.0000
     16 C16         1.4086   -0.3394   -0.0105 C.2     1  LIG1        0.0000
     17 C17         0.0944    0.0161    0.0052 C.2     1  LIG1        0.0000
     18 C18        -1.0396   -0.8868    0.0108 C.2     1  LIG1        0.0000
     19 N19        -2.2027   -0.4293    0.0275 N.2     1  LIG1        0.0000
     20 N20        -3.1660   -1.3769    0.0308 N.am    1  LIG1        0.0000
     21 C21        -3.2738   -2.2843   -0.9923 C.2     1  LIG1        0.0000
     22 N22        -4.2203   -3.2063   -0.9786 N.2     1  LIG1        0.0000
     23 C23        -5.1308   -3.3025    0.0434 C.2     1  LIG1        0.0000
     24 C24        -5.0585   -2.4254    1.0707 C.2     1  LIG1        0.0000
     25 C25        -6.1038   -2.7550    1.9662 C.2     1  LIG1        0.0000
     26 N26        -6.7376   -3.7817    1.4510 N.2     1  LIG1        0.0000
     27 N27        -6.1830   -4.1278    0.3101 N.pl3   1  LIG1        0.0000
     28 C28        -6.6111   -5.1828   -0.5050 C.3     1  LIG1        0.0000
     29 C29        -7.0224   -6.3781    0.0757 C.3     1  LIG1        0.0000
     30 C30        -7.4454   -7.4210   -0.7417 C.3     1  LIG1        0.0000
     31 C31        -7.4545   -7.2625   -2.1241 C.3     1  LIG1        0.0000
     32 C32        -7.0418   -6.0635   -2.6962 C.3     1  LIG1        0.0000
     33 C33        -6.6166   -5.0155   -1.8859 C.3     1  LIG1        0.0000
     34 C34        -4.0499   -1.4256    1.0783 C.2     1  LIG1        0.0000
     35 O35        -3.9628   -0.6223    1.9937 O.2     1  LIG1        0.0000
     36 C36        -1.1846    3.3959    0.8172 C.3     1  LIG1        0.0000
     37 C37        -2.3314    4.1831    0.8278 C.3     1  LIG1        0.0000
     38 C38        -2.3465    5.4340    1.6917 C.3     1  LIG1        0.0000
     39 H          -5.3735    4.2328   -0.5630 H       1  LIG1        0.0000
     40 H          -5.0770    4.7065    0.9714 H       1  LIG1        0.0000
     41 H          -4.4909    5.5772   -0.2795 H       1  LIG1        0.0000
     42 H          -4.1788    2.4105   -1.2727 H       1  LIG1        0.0000
     43 H          -2.2116    1.0459   -1.2994 H       1  LIG1        0.0000
     44 H           3.9698    0.1168    0.4356 H       1  LIG1        0.0000
     45 H           3.8696    1.7467    0.4473 H       1  LIG1        0.0000
     46 H           4.2569   -1.1115   -1.6585 H       1  LIG1        0.0000
     47 H           5.0272   -1.0352   -3.9262 H       1  LIG1        0.0000
     48 H           5.2804    1.0679   -5.0308 H       1  LIG1        0.0000
     49 H           4.7683    3.0992   -3.8834 H       1  LIG1        0.0000
     50 H           3.9993    3.0317   -1.6145 H       1  LIG1        0.0000
     51 H           1.7800   -1.2678   -0.0211 H       1  LIG1        0.0000
     52 H          -0.8913   -1.8757    0.0014 H       1  LIG1        0.0000
     53 H          -2.6295   -2.2477   -1.7562 H       1  LIG1        0.0000
     54 H          -6.3182   -2.2935    2.8270 H       1  LIG1        0.0000
     55 H          -7.0139   -6.4864    1.0698 H       1  LIG1        0.0000
     56 H          -7.7431   -8.2850   -0.3357 H       1  LIG1        0.0000
     57 H          -7.7592   -8.0141   -2.7092 H       1  LIG1        0.0000
     58 H          -7.0508   -5.9548   -3.6903 H       1  LIG1        0.0000
     59 H          -6.3181   -4.1517   -2.2918 H       1  LIG1        0.0000
     60 H          -0.3912    3.6537    1.3686 H       1  LIG1        0.0000
     61 H          -1.4698    5.5232    2.1644 H       1  LIG1        0.0000
     62 H          -2.4968    6.2363    1.1139 H       1  LIG1        0.0000
     63 H          -3.0828    5.3653    2.3648 H       1  LIG1        0.0000
@<TRIPOS>BOND
     1     1     2    1
     2     2     3   ar
     3     3     4   ar
     4     4     5   ar
     5     5     6    1
     6     6     7    2
     7     7     8    1
     8     8     9    1
     9     9    10    1
    10    10    11   ar
    11    11    12   ar
    12    12    13   ar
    13    13    14   ar
    14    14    15   ar
    15    15    10   ar
    16     8    16    1
    17    16    17    2
    18    17     6    1
    19    17    18    1
    20    18    19    2
    21    19    20    1
    22    20    21    1
    23    21    22    2
    24    22    23    1
    25    23    24    2
    26    24    25    1
    27    25    26    2
    28    26    27    1
    29    27    23    1
    30    27    28    1
    31    28    29   ar
    32    29    30   ar
    33    30    31   ar
    34    31    32   ar
    35    32    33   ar
    36    33    28   ar
    37    24    34    1
    38    34    20   am
    39    34    35    2
    40     5    36   ar
    41    36    37   ar
    42    37     2   ar
    43    37    38    1
    44     1    39    1
    45     1    40    1
    46     1    41    1
    47     3    42    1
    48     4    43    1
    49     9    44    1
    50     9    45    1
    51    11    46    1
    52    12    47    1
    53    13    48    1
    54    14    49    1
    55    15    50    1
    56    16    51    1
    57    18    52    1
    58    21    53    1
    59    25    54    1
    60    29    55    1
    61    30    56    1
    62    31    57    1
    63    32    58    1
    64    33    59    1
    65    36    60    1
    66    38    61    1
    67    38    62    1
    68    38    63    1
