@<TRIPOS>MOLECULE
*****
 63 68 0 0 0
SMALL
USER_CHARGES

@<TRIPOS>ATOM
      1 C1         -4.7017    4.6546    0.1189 C.3     1  LIG1        0.0000
      2 C2         -3.4325    3.8190    0.0716 C.3     1  LIG1        0.0000
      3 C3         -3.3712    2.6580    0.8348 C.3     1  LIG1        0.0000
      4 C4         -2.2299    1.8636    0.8220 C.3     1  LIG1        0.0000
      5 C5         -1.1504    2.2474    0.0335 C.3     1  LIG1        0.0000
      6 C6          0.0412    1.4218    0.0169 C.2     1  LIG1        0.0000
      7 N7          1.2849    1.8421    0.0079 N.2     1  LIG1        0.0000
      8 N8          2.1146    0.8240   -0.0087 N.pl3   1  LIG1        0.0000
      9 C9          3.5813    0.9143   -0.0260 C.3     1  LIG1        0.0000
     10 C10         4.1045    0.9362    1.4012 C.3     1  LIG1        0.0000
     11 C11         4.2672    2.1527    2.0559 C.3     1  LIG1        0.0000
     12 C12         4.7471    2.1636    3.3613 C.3     1  LIG1        0.0000
     13 C13         5.0586    0.9664    3.9987 C.3     1  LIG1        0.0000
     14 C14         4.8925   -0.2456    3.3365 C.3     1  LIG1        0.0000
     15 C15         4.4137   -0.2653    2.0304 C.3     1  LIG1        0.0000
     16 C16         1.4086   -0.3394   -0.0105 C.2     1  LIG1        0.0000
     17 C17         0.0944    0.0161    0.0052 C.2     1  LIG1        0.0000
     18 C18        -1.0396   -0.8868    0.0108 C.2     1  LIG1        0.0000
     19 N19        -2.2027   -0.4293    0.0275 N.2     1  LIG1        0.0000
     20 N20        -3.1660   -1.3769    0.0308 N.am    1  LIG1        0.0000
     21 C21        -4.0965   -1.4479   -0.9746 C.2     1  LIG1        0.0000
     22 N22        -5.0345   -2.3786   -0.9605 N.2     1  LIG1        0.0000
     23 C23        -5.1255   -3.3079    0.0450 C.2     1  LIG1        0.0000
     24 C24        -4.2268   -3.2709    1.0554 C.2     1  LIG1        0.0000
     25 C25        -4.5552   -4.3294    1.9357 C.2     1  LIG1        0.0000
     26 N26        -5.6044   -4.9337    1.4306 N.2     1  LIG1        0.0000
     27 N27        -5.9653   -4.3491    0.3094 N.pl3   1  LIG1        0.0000
     28 C28        -7.0484   -4.7382   -0.4881 C.3     1  LIG1        0.0000
     29 C29        -7.3077   -6.0906   -0.6846 C.3     1  LIG1        0.0000
     30 C30        -8.3853   -6.4680   -1.4789 C.3     1  LIG1        0.0000
     31 C31        -9.1907   -5.4974   -2.0669 C.3     1  LIG1        0.0000
     32 C32        -8.9241   -4.1471   -1.8648 C.3     1  LIG1        0.0000
     33 C33        -7.8478   -3.7610   -1.0722 C.3     1  LIG1        0.0000
     34 C34        -3.2096   -2.2798    1.0621 C.2     1  LIG1        0.0000
     35 O35        -2.3863   -2.2250    1.9621 O.2     1  LIG1        0.0000
     36 C36        -1.1992    3.4061   -0.7344 C.3     1  LIG1        0.0000
     37 C37        -2.3461    4.1930   -0.7135 C.3     1  LIG1        0.0000
     38 C38        -2.3773    5.4550   -1.5605 C.3     1  LIG1        0.0000
     39 H          -5.3615    4.2240    0.7347 H       1  LIG1        0.0000
     40 H          -4.4845    5.5721    0.4519 H       1  LIG1        0.0000
     41 H          -5.0939    4.7173   -0.7989 H       1  LIG1        0.0000
     42 H          -4.1542    2.3923    1.3973 H       1  LIG1        0.0000
     43 H          -2.1860    1.0291    1.3714 H       1  LIG1        0.0000
     44 H           3.8582    1.7527   -0.4954 H       1  LIG1        0.0000
     45 H           3.9583    0.1228   -0.5071 H       1  LIG1        0.0000
     46 H           4.0416    3.0100    1.5931 H       1  LIG1        0.0000
     47 H           4.8684    3.0320    3.8420 H       1  LIG1        0.0000
     48 H           5.4034    0.9774    4.9373 H       1  LIG1        0.0000
     49 H           5.1175   -1.1030    3.7993 H       1  LIG1        0.0000
     50 H           4.2930   -1.1336    1.5492 H       1  LIG1        0.0000
     51 H           1.7800   -1.2678   -0.0211 H       1  LIG1        0.0000
     52 H          -0.8913   -1.8757    0.0014 H       1  LIG1        0.0000
     53 H          -4.0647   -0.7887   -1.7258 H       1  LIG1        0.0000
     54 H          -4.0785   -4.5706    2.7810 H       1  LIG1        0.0000
     55 H          -6.7259   -6.7839   -0.2594 H       1  LIG1        0.0000
     56 H          -8.5814   -7.4373   -1.6276 H       1  LIG1        0.0000
     57 H          -9.9647   -5.7718   -2.6375 H       1  LIG1        0.0000
     58 H          -9.5063   -3.4537   -2.2893 H       1  LIG1        0.0000
     59 H          -7.6511   -2.7918   -0.9240 H       1  LIG1        0.0000
     60 H          -0.4161    3.6713   -1.2970 H       1  LIG1        0.0000
     61 H          -1.5097    5.5504   -2.0486 H       1  LIG1        0.0000
     62 H          -3.1261    5.3950   -2.2205 H       1  LIG1        0.0000
     63 H          -2.5165    6.2496   -0.9697 H       1  LIG1        0.0000
@<TRIPOS>BOND
     1     1     2    1
     2     2     3   ar
     3     3     4   ar
     4     4     5   ar
     5     5     6    1
     6     6     7    2
     7     7     8    1
     8     8     9    1
     9     9    10    1
    10    10    11   ar
    11    11    12   ar
    12    12    13   ar
    13    13    14   ar
    14    14    15   ar
    15    15    10   ar
    16     8    16    1
    17    16    17    2
    18    17     6    1
    19    17    18    1
    20    18    19    2
    21    19    20    1
    22    20    21    1
    23    21    22    2
    24    22    23    1
    25    23    24    2
    26    24    25    1
    27    25    26    2
    28    26    27    1
    29    27    23    1
    30    27    28    1
    31    28    29   ar
    32    29    30   ar
    33    30    31   ar
    34    31    32   ar
    35    32    33   ar
    36    33    28   ar
    37    24    34    1
    38    34    20   am
    39    34    35    2
    40     5    36   ar
    41    36    37   ar
    42    37     2   ar
    43    37    38    1
    44     1    39    1
    45     1    40    1
    46     1    41    1
    47     3    42    1
    48     4    43    1
    49     9    44    1
    50     9    45    1
    51    11    46    1
    52    12    47    1
    53    13    48    1
    54    14    49    1
    55    15    50    1
    56    16    51    1
    57    18    52    1
    58    21    53    1
    59    25    54    1
    60    29    55    1
    61    30    56    1
    62    31    57    1
    63    32    58    1
    64    33    59    1
    65    36    60    1
    66    38    61    1
    67    38    62    1
    68    38    63    1
