@<TRIPOS>MOLECULE
*****
 63 68 0 0 0
SMALL
USER_CHARGES

@<TRIPOS>ATOM
      1 C1         -4.7021    4.6555    0.0458 C.3     1  LIG1        0.0000
      2 C2         -3.4325    3.8193    0.0586 C.3     1  LIG1        0.0000
      3 C3         -3.3857    2.6684   -0.7209 C.3     1  LIG1        0.0000
      4 C4         -2.2447    1.8736   -0.7392 C.3     1  LIG1        0.0000
      5 C5         -1.1504    2.2474    0.0335 C.3     1  LIG1        0.0000
      6 C6          0.0412    1.4218    0.0169 C.2     1  LIG1        0.0000
      7 N7          1.2849    1.8421    0.0079 N.2     1  LIG1        0.0000
      8 N8          2.1146    0.8240   -0.0087 N.pl3   1  LIG1        0.0000
      9 C9          3.5813    0.9143   -0.0260 C.3     1  LIG1        0.0000
     10 C10         4.1045    0.9362    1.4012 C.3     1  LIG1        0.0000
     11 C11         4.2672    2.1527    2.0559 C.3     1  LIG1        0.0000
     12 C12         4.7471    2.1636    3.3613 C.3     1  LIG1        0.0000
     13 C13         5.0586    0.9664    3.9987 C.3     1  LIG1        0.0000
     14 C14         4.8925   -0.2456    3.3365 C.3     1  LIG1        0.0000
     15 C15         4.4137   -0.2653    2.0304 C.3     1  LIG1        0.0000
     16 C16         1.4086   -0.3394   -0.0105 C.2     1  LIG1        0.0000
     17 C17         0.0944    0.0161    0.0052 C.2     1  LIG1        0.0000
     18 C18        -1.0396   -0.8868    0.0108 C.2     1  LIG1        0.0000
     19 N19        -2.2027   -0.4293    0.0275 N.2     1  LIG1        0.0000
     20 N20        -3.1660   -1.3769    0.0308 N.am    1  LIG1        0.0000
     21 C21        -2.9529   -2.6049    0.6039 C.2     1  LIG1        0.0000
     22 N22        -3.9022   -3.5242    0.6007 N.2     1  LIG1        0.0000
     23 C23        -5.1313   -3.3020    0.0325 C.2     1  LIG1        0.0000
     24 C24        -5.3805   -2.1038   -0.5437 C.2     1  LIG1        0.0000
     25 C25        -6.7052   -2.1542   -1.0393 C.2     1  LIG1        0.0000
     26 N26        -7.1758   -3.3440   -0.7490 N.2     1  LIG1        0.0000
     27 N27        -6.2640   -4.0469   -0.1137 N.pl3   1  LIG1        0.0000
     28 C28        -6.4334   -5.3605    0.3407 C.3     1  LIG1        0.0000
     29 C29        -7.6452   -5.7420    0.9073 C.3     1  LIG1        0.0000
     30 C30        -7.8044   -7.0486    1.3566 C.3     1  LIG1        0.0000
     31 C31        -6.7582   -7.9584    1.2370 C.3     1  LIG1        0.0000
     32 C32        -5.5499   -7.5683    0.6688 C.3     1  LIG1        0.0000
     33 C33        -5.3821   -6.2630    0.2174 C.3     1  LIG1        0.0000
     34 C34        -4.3758   -1.1000   -0.5527 C.2     1  LIG1        0.0000
     35 O35        -4.5755   -0.0102   -1.0658 O.2     1  LIG1        0.0000
     36 C36        -1.1846    3.3959    0.8172 C.3     1  LIG1        0.0000
     37 C37        -2.3314    4.1831    0.8278 C.3     1  LIG1        0.0000
     38 C38        -2.3465    5.4340    1.6917 C.3     1  LIG1        0.0000
     39 H          -5.3735    4.2328   -0.5630 H       1  LIG1        0.0000
     40 H          -5.0770    4.7065    0.9714 H       1  LIG1        0.0000
     41 H          -4.4909    5.5772   -0.2795 H       1  LIG1        0.0000
     42 H          -4.1788    2.4105   -1.2727 H       1  LIG1        0.0000
     43 H          -2.2116    1.0459   -1.2994 H       1  LIG1        0.0000
     44 H           3.8582    1.7527   -0.4954 H       1  LIG1        0.0000
     45 H           3.9583    0.1228   -0.5071 H       1  LIG1        0.0000
     46 H           4.0416    3.0100    1.5931 H       1  LIG1        0.0000
     47 H           4.8684    3.0320    3.8420 H       1  LIG1        0.0000
     48 H           5.4034    0.9774    4.9373 H       1  LIG1        0.0000
     49 H           5.1175   -1.1030    3.7993 H       1  LIG1        0.0000
     50 H           4.2930   -1.1336    1.5492 H       1  LIG1        0.0000
     51 H           1.7800   -1.2678   -0.0211 H       1  LIG1        0.0000
     52 H          -0.8913   -1.8757    0.0014 H       1  LIG1        0.0000
     53 H          -2.0702   -2.8064    1.0284 H       1  LIG1        0.0000
     54 H          -7.1898   -1.4228   -1.5191 H       1  LIG1        0.0000
     55 H          -8.3937   -5.0840    0.9905 H       1  LIG1        0.0000
     56 H          -8.6709   -7.3343    1.7659 H       1  LIG1        0.0000
     57 H          -6.8757   -8.8972    1.5609 H       1  LIG1        0.0000
     58 H          -4.8015   -8.2263    0.5849 H       1  LIG1        0.0000
     59 H          -4.5154   -5.9768   -0.1912 H       1  LIG1        0.0000
     60 H          -0.3912    3.6537    1.3686 H       1  LIG1        0.0000
     61 H          -1.4698    5.5232    2.1644 H       1  LIG1        0.0000
     62 H          -2.4968    6.2363    1.1139 H       1  LIG1        0.0000
     63 H          -3.0828    5.3653    2.3648 H       1  LIG1        0.0000
@<TRIPOS>BOND
     1     1     2    1
     2     2     3   ar
     3     3     4   ar
     4     4     5   ar
     5     5     6    1
     6     6     7    2
     7     7     8    1
     8     8     9    1
     9     9    10    1
    10    10    11   ar
    11    11    12   ar
    12    12    13   ar
    13    13    14   ar
    14    14    15   ar
    15    15    10   ar
    16     8    16    1
    17    16    17    2
    18    17     6    1
    19    17    18    1
    20    18    19    2
    21    19    20    1
    22    20    21    1
    23    21    22    2
    24    22    23    1
    25    23    24    2
    26    24    25    1
    27    25    26    2
    28    26    27    1
    29    27    23    1
    30    27    28    1
    31    28    29   ar
    32    29    30   ar
    33    30    31   ar
    34    31    32   ar
    35    32    33   ar
    36    33    28   ar
    37    24    34    1
    38    34    20   am
    39    34    35    2
    40     5    36   ar
    41    36    37   ar
    42    37     2   ar
    43    37    38    1
    44     1    39    1
    45     1    40    1
    46     1    41    1
    47     3    42    1
    48     4    43    1
    49     9    44    1
    50     9    45    1
    51    11    46    1
    52    12    47    1
    53    13    48    1
    54    14    49    1
    55    15    50    1
    56    16    51    1
    57    18    52    1
    58    21    53    1
    59    25    54    1
    60    29    55    1
    61    30    56    1
    62    31    57    1
    63    32    58    1
    64    33    59    1
    65    36    60    1
    66    38    61    1
    67    38    62    1
    68    38    63    1
