@<TRIPOS>MOLECULE

  67   70
SMALL
USER_CHARGES
@<TRIPOS>ATOM
   1 C1          -3.9873     2.8702    -0.6615 C.3          1    LIG   0.0000
   2 C2          -2.8276     3.6396    -1.2726 C.3          1    LIG   0.0000
   3 C3          -2.5916     4.9147    -0.4796 C.3          1    LIG   0.0000
   4 N4          -1.6154     2.8089    -1.2369 N.am         1    LIG   0.0000
   5 C5          -0.9311     2.4530    -2.4883 C.3          1    LIG   0.0000
   6 C6           0.1106     3.5108    -2.8146 C.2          1    LIG   0.0000
   7 N7          -0.1855     4.5698    -3.5485 N.2          1    LIG   0.0000
   8 C8           0.7471     5.5297    -3.8491 C.ar         1    LIG   0.0000
   9 C9           0.4215     6.6396    -4.6232 C.ar         1    LIG   0.0000
  10 C10          1.3665     7.6133    -4.9284 C.ar         1    LIG   0.0000
  11 C11          2.6684     7.4899    -4.4577 C.ar         1    LIG   0.0000
  12 C12          2.9891     6.3801    -3.6843 C.ar         1    LIG   0.0000
  13 C13          2.0484     5.3994    -3.3740 C.ar         1    LIG   0.0000
  14 C14          2.3614     4.2578    -2.5848 C.2          1    LIG   0.0000
  15 O15          3.4758     4.0601    -2.1249 O.2          1    LIG   0.0000
  16 N16          1.3792     3.3395    -2.3256 N.pl3        1    LIG   0.0000
  17 C17         -1.1234     2.3663    -0.0373 C.2          1    LIG   0.0000
  18 O18         -1.6820     2.6568     0.9842 O.2          1    LIG   0.0000
  19 C19          0.0722     1.5470    -0.0021 C.2          1    LIG   0.0000
  20 N20          1.2569     1.9748    -0.0880 N.2          1    LIG   0.0000
  21 N21          2.1379     0.9582    -0.0375 N.pl3        1    LIG   0.0000
  22 C22          3.4902     1.0730     0.3071 C.ar         1    LIG   0.0000
  23 C23          4.2957    -0.0609     0.3207 C.ar         1    LIG   0.0000
  24 C24          5.6377     0.0623     0.6648 C.ar         1    LIG   0.0000
  25 C25          6.1614     1.3099     0.9903 C.ar         1    LIG   0.0000
  26 C26          5.3485     2.4386     0.9738 C.ar         1    LIG   0.0000
  27 C27          4.0049     2.3240     0.6314 C.ar         1    LIG   0.0000
  28 C28          1.4696    -0.2865    -0.4012 C.3          1    LIG   0.0000
  29 C29          1.4841    -0.5227    -1.9032 C.2          1    LIG   0.0000
  30 O30          2.0071     0.2752    -2.6310 O.2          1    LIG   0.0000
  31 O31          0.9255    -1.5972    -2.4027 O.3          1    LIG   0.0000
  32 C32          0.9944    -1.7216    -3.8156 C.3          1    LIG   0.0000
  33 C33          0.3088    -3.0084    -4.2450 C.3          1    LIG   0.0000
  34 C34          0.2978    -0.5359    -4.4631 C.3          1    LIG   0.0000
  35 C35          2.4504    -1.7535    -4.2510 C.3          1    LIG   0.0000
  36 C36          0.0964     0.0384     0.1413 C.3          1    LIG   0.0000
  37 H            1.5904     2.5337    -1.7723 H            1    LIG   0.0000
  38 H            1.8711    -1.0623     0.0857 H            1    LIG   0.0000
  39 H           -4.8120     3.4353    -0.6858 H            1    LIG   0.0000
  40 H           -4.1426     2.0313    -1.1832 H            1    LIG   0.0000
  41 H           -3.7704     2.6377     0.2866 H            1    LIG   0.0000
  42 H           -3.0446     3.8720    -2.2207 H            1    LIG   0.0000
  43 H           -3.4163     5.4798    -0.5040 H            1    LIG   0.0000
  44 H           -2.3747     4.6822     0.4685 H            1    LIG   0.0000
  45 H           -1.8287     5.4209    -0.8817 H            1    LIG   0.0000
  46 H           -1.5990     2.4027    -3.2308 H            1    LIG   0.0000
  47 H           -0.4829     1.5653    -2.3823 H            1    LIG   0.0000
  48 H           -0.5121     6.7391    -4.9674 H            1    LIG   0.0000
  49 H            1.1093     8.4021    -5.4866 H            1    LIG   0.0000
  50 H            3.3577     8.1826    -4.6701 H            1    LIG   0.0000
  51 H            3.9229     6.2824    -3.3402 H            1    LIG   0.0000
  52 H            3.9142    -0.9549     0.0857 H            1    LIG   0.0000
  53 H            6.2265    -0.7459     0.6784 H            1    LIG   0.0000
  54 H            7.1266     1.3953     1.2373 H            1    LIG   0.0000
  55 H            5.7301     3.3328     1.2081 H            1    LIG   0.0000
  56 H            3.4158     3.1319     0.6185 H            1    LIG   0.0000
  57 H            0.3574    -3.0960    -5.2400 H            1    LIG   0.0000
  58 H            0.7671    -3.7885    -3.8190 H            1    LIG   0.0000
  59 H           -0.6490    -2.9874    -3.9585 H            1    LIG   0.0000
  60 H            0.3463    -0.6234    -5.4581 H            1    LIG   0.0000
  61 H           -0.6601    -0.5149    -4.1766 H            1    LIG   0.0000
  62 H            0.7488     0.3107    -4.1806 H            1    LIG   0.0000
  63 H            2.4989    -1.8410    -5.2460 H            1    LIG   0.0000
  64 H            2.9014    -0.9068    -3.9685 H            1    LIG   0.0000
  65 H            2.9087    -2.5335    -3.8250 H            1    LIG   0.0000
  66 H           -0.6237    -0.3929    -0.4021 H            1    LIG   0.0000
  67 H            0.0047    -0.2403     1.0973 H            1    LIG   0.0000
@<TRIPOS>BOND
   1        1        2 1
   2        2        3 1
   3        2        4 1
   4        4        5 1
   5        5        6 1
   6        6        7 2
   7        7        8 1
   8        8        9 ar
   9        9       10 ar
  10       10       11 ar
  11       11       12 ar
  12       12       13 ar
  13       13        8 ar
  14       13       14 1
  15       14       15 2
  16       14       16 1
  17       16        6 1
  18        4       17 am
  19       17       18 2
  20       17       19 1
  21       19       20 2
  22       20       21 1
  23       21       22 1
  24       22       23 ar
  25       23       24 ar
  26       24       25 ar
  27       25       26 ar
  28       26       27 ar
  29       27       22 ar
  30       21       28 1
  31       28       29 1
  32       29       30 2
  33       29       31 1
  34       31       32 1
  35       32       33 1
  36       32       34 1
  37       32       35 1
  38       28       36 1
  39       36       19 1
  40       16       37 1
  41       28       38 1
  42        1       39 1
  43        1       40 1
  44        1       41 1
  45        2       42 1
  46        3       43 1
  47        3       44 1
  48        3       45 1
  49        5       46 1
  50        5       47 1
  51        9       48 1
  52       10       49 1
  53       11       50 1
  54       12       51 1
  55       23       52 1
  56       24       53 1
  57       25       54 1
  58       26       55 1
  59       27       56 1
  60       33       57 1
  61       33       58 1
  62       33       59 1
  63       34       60 1
  64       34       61 1
  65       34       62 1
  66       35       63 1
  67       35       64 1
  68       35       65 1
  69       36       66 1
  70       36       67 1

@<TRIPOS>MOLECULE

  67   70
SMALL
USER_CHARGES
@<TRIPOS>ATOM
   1 C1          -3.9873     2.8702    -0.6615 C.3          1    LIG   0.0000
   2 C2          -2.8276     3.6396    -1.2726 C.3          1    LIG   0.0000
   3 C3          -2.5916     4.9147    -0.4796 C.3          1    LIG   0.0000
   4 N4          -1.6154     2.8089    -1.2369 N.am         1    LIG   0.0000
   5 C5          -0.9311     2.4530    -2.4883 C.3          1    LIG   0.0000
   6 C6           0.1106     3.5108    -2.8146 C.2          1    LIG   0.0000
   7 N7          -0.1855     4.5698    -3.5485 N.2          1    LIG   0.0000
   8 C8           0.7471     5.5297    -3.8491 C.ar         1    LIG   0.0000
   9 C9           0.4215     6.6396    -4.6232 C.ar         1    LIG   0.0000
  10 C10          1.3665     7.6133    -4.9284 C.ar         1    LIG   0.0000
  11 C11          2.6684     7.4899    -4.4577 C.ar         1    LIG   0.0000
  12 C12          2.9891     6.3801    -3.6843 C.ar         1    LIG   0.0000
  13 C13          2.0484     5.3994    -3.3740 C.ar         1    LIG   0.0000
  14 C14          2.3614     4.2578    -2.5848 C.2          1    LIG   0.0000
  15 O15          3.4758     4.0601    -2.1249 O.2          1    LIG   0.0000
  16 N16          1.3792     3.3395    -2.3256 N.pl3        1    LIG   0.0000
  17 C17         -1.1234     2.3663    -0.0373 C.2          1    LIG   0.0000
  18 O18         -1.6820     2.6568     0.9842 O.2          1    LIG   0.0000
  19 C19          0.0722     1.5470    -0.0021 C.2          1    LIG   0.0000
  20 N20          1.2569     1.9748    -0.0880 N.2          1    LIG   0.0000
  21 N21          2.1379     0.9582    -0.0375 N.pl3        1    LIG   0.0000
  22 C22          3.4902     1.0730     0.3071 C.ar         1    LIG   0.0000
  23 C23          4.2957    -0.0609     0.3207 C.ar         1    LIG   0.0000
  24 C24          5.6377     0.0623     0.6648 C.ar         1    LIG   0.0000
  25 C25          6.1614     1.3099     0.9903 C.ar         1    LIG   0.0000
  26 C26          5.3485     2.4386     0.9738 C.ar         1    LIG   0.0000
  27 C27          4.0049     2.3240     0.6314 C.ar         1    LIG   0.0000
  28 C28          1.4696    -0.2865    -0.4012 C.3          1    LIG   0.0000
  29 C29          1.4841    -0.5227    -1.9032 C.2          1    LIG   0.0000
  30 O30          0.9724    -1.5070    -2.3608 O.2          1    LIG   0.0000
  31 O31          2.0551     0.3484    -2.6977 O.3          1    LIG   0.0000
  32 C32          2.0130     0.0330    -4.0816 C.3          1    LIG   0.0000
  33 C33          2.7103     1.1280    -4.8723 C.3          1    LIG   0.0000
  34 C34          2.7182    -1.2921    -4.3209 C.3          1    LIG   0.0000
  35 C35          0.5656    -0.0746    -4.5331 C.3          1    LIG   0.0000
  36 C36          0.0964     0.0384     0.1413 C.3          1    LIG   0.0000
  37 H            1.5904     2.5337    -1.7723 H            1    LIG   0.0000
  38 H            1.8711    -1.0623     0.0857 H            1    LIG   0.0000
  39 H           -4.8120     3.4353    -0.6858 H            1    LIG   0.0000
  40 H           -4.1426     2.0313    -1.1832 H            1    LIG   0.0000
  41 H           -3.7704     2.6377     0.2866 H            1    LIG   0.0000
  42 H           -3.0446     3.8720    -2.2207 H            1    LIG   0.0000
  43 H           -3.4163     5.4798    -0.5040 H            1    LIG   0.0000
  44 H           -2.3747     4.6822     0.4685 H            1    LIG   0.0000
  45 H           -1.8287     5.4209    -0.8817 H            1    LIG   0.0000
  46 H           -1.5990     2.4027    -3.2308 H            1    LIG   0.0000
  47 H           -0.4829     1.5653    -2.3823 H            1    LIG   0.0000
  48 H           -0.5121     6.7391    -4.9674 H            1    LIG   0.0000
  49 H            1.1093     8.4021    -5.4866 H            1    LIG   0.0000
  50 H            3.3577     8.1826    -4.6701 H            1    LIG   0.0000
  51 H            3.9229     6.2824    -3.3402 H            1    LIG   0.0000
  52 H            3.9142    -0.9549     0.0857 H            1    LIG   0.0000
  53 H            6.2265    -0.7459     0.6784 H            1    LIG   0.0000
  54 H            7.1266     1.3953     1.2373 H            1    LIG   0.0000
  55 H            5.7301     3.3328     1.2081 H            1    LIG   0.0000
  56 H            3.4158     3.1319     0.6185 H            1    LIG   0.0000
  57 H            2.6807     0.9059    -5.8468 H            1    LIG   0.0000
  58 H            2.2464     1.9998    -4.7148 H            1    LIG   0.0000
  59 H            3.6626     1.1987    -4.5753 H            1    LIG   0.0000
  60 H            2.6886    -1.5142    -5.2955 H            1    LIG   0.0000
  61 H            3.6704    -1.2214    -4.0239 H            1    LIG   0.0000
  62 H            2.2594    -2.0125    -3.8008 H            1    LIG   0.0000
  63 H            0.5360    -0.2967    -5.5076 H            1    LIG   0.0000
  64 H            0.1069    -0.7950    -4.0129 H            1    LIG   0.0000
  65 H            0.1017     0.7972    -4.3756 H            1    LIG   0.0000
  66 H           -0.6237    -0.3929    -0.4021 H            1    LIG   0.0000
  67 H            0.0047    -0.2403     1.0973 H            1    LIG   0.0000
@<TRIPOS>BOND
   1        1        2 1
   2        2        3 1
   3        2        4 1
   4        4        5 1
   5        5        6 1
   6        6        7 2
   7        7        8 1
   8        8        9 ar
   9        9       10 ar
  10       10       11 ar
  11       11       12 ar
  12       12       13 ar
  13       13        8 ar
  14       13       14 1
  15       14       15 2
  16       14       16 1
  17       16        6 1
  18        4       17 am
  19       17       18 2
  20       17       19 1
  21       19       20 2
  22       20       21 1
  23       21       22 1
  24       22       23 ar
  25       23       24 ar
  26       24       25 ar
  27       25       26 ar
  28       26       27 ar
  29       27       22 ar
  30       21       28 1
  31       28       29 1
  32       29       30 2
  33       29       31 1
  34       31       32 1
  35       32       33 1
  36       32       34 1
  37       32       35 1
  38       28       36 1
  39       36       19 1
  40       16       37 1
  41       28       38 1
  42        1       39 1
  43        1       40 1
  44        1       41 1
  45        2       42 1
  46        3       43 1
  47        3       44 1
  48        3       45 1
  49        5       46 1
  50        5       47 1
  51        9       48 1
  52       10       49 1
  53       11       50 1
  54       12       51 1
  55       23       52 1
  56       24       53 1
  57       25       54 1
  58       26       55 1
  59       27       56 1
  60       33       57 1
  61       33       58 1
  62       33       59 1
  63       34       60 1
  64       34       61 1
  65       34       62 1
  66       35       63 1
  67       35       64 1
  68       35       65 1
  69       36       66 1
  70       36       67 1

@<TRIPOS>MOLECULE

  67   70
SMALL
USER_CHARGES
@<TRIPOS>ATOM
   1 C1          -3.9873     2.8702    -0.6615 C.3          1    LIG   0.0000
   2 C2          -2.8276     3.6396    -1.2726 C.3          1    LIG   0.0000
   3 C3          -2.5916     4.9147    -0.4796 C.3          1    LIG   0.0000
   4 N4          -1.6154     2.8089    -1.2369 N.am         1    LIG   0.0000
   5 C5          -0.9311     2.4530    -2.4883 C.3          1    LIG   0.0000
   6 C6           0.1106     3.5108    -2.8146 C.2          1    LIG   0.0000
   7 N7           1.3546     3.4142    -2.3776 N.2          1    LIG   0.0000
   8 C8           2.3021     4.3633    -2.6659 C.ar         1    LIG   0.0000
   9 C9           3.6082     4.2491    -2.1990 C.ar         1    LIG   0.0000
  10 C10          4.5694     5.2110    -2.4909 C.ar         1    LIG   0.0000
  11 C11          4.2342     6.3160    -3.2645 C.ar         1    LIG   0.0000
  12 C12          2.9286     6.4257    -3.7293 C.ar         1    LIG   0.0000
  13 C13          1.9590     5.4667    -3.4412 C.ar         1    LIG   0.0000
  14 C14          0.6190     5.5654    -3.9087 C.2          1    LIG   0.0000
  15 O15          0.2275     6.4971    -4.5950 O.2          1    LIG   0.0000
  16 N16         -0.2735     4.5800    -3.5807 N.pl3        1    LIG   0.0000
  17 C17         -1.1234     2.3663    -0.0373 C.2          1    LIG   0.0000
  18 O18         -1.6820     2.6568     0.9842 O.2          1    LIG   0.0000
  19 C19          0.0722     1.5470    -0.0021 C.2          1    LIG   0.0000
  20 N20          1.2569     1.9748    -0.0880 N.2          1    LIG   0.0000
  21 N21          2.1379     0.9582    -0.0375 N.pl3        1    LIG   0.0000
  22 C22          3.4902     1.0730     0.3071 C.ar         1    LIG   0.0000
  23 C23          4.2957    -0.0609     0.3207 C.ar         1    LIG   0.0000
  24 C24          5.6377     0.0623     0.6648 C.ar         1    LIG   0.0000
  25 C25          6.1614     1.3099     0.9903 C.ar         1    LIG   0.0000
  26 C26          5.3485     2.4386     0.9738 C.ar         1    LIG   0.0000
  27 C27          4.0049     2.3240     0.6314 C.ar         1    LIG   0.0000
  28 C28          1.4696    -0.2865    -0.4012 C.3          1    LIG   0.0000
  29 C29          1.4841    -0.5227    -1.9032 C.2          1    LIG   0.0000
  30 O30          2.0071     0.2752    -2.6310 O.2          1    LIG   0.0000
  31 O31          0.9255    -1.5972    -2.4027 O.3          1    LIG   0.0000
  32 C32          0.9944    -1.7216    -3.8156 C.3          1    LIG   0.0000
  33 C33          0.3088    -3.0084    -4.2450 C.3          1    LIG   0.0000
  34 C34          0.2978    -0.5359    -4.4631 C.3          1    LIG   0.0000
  35 C35          2.4504    -1.7535    -4.2510 C.3          1    LIG   0.0000
  36 C36          0.0964     0.0384     0.1413 C.3          1    LIG   0.0000
  37 H           -1.2177     4.6415    -3.9043 H            1    LIG   0.0000
  38 H            1.8711    -1.0623     0.0857 H            1    LIG   0.0000
  39 H           -4.8120     3.4353    -0.6858 H            1    LIG   0.0000
  40 H           -4.1426     2.0313    -1.1832 H            1    LIG   0.0000
  41 H           -3.7704     2.6377     0.2866 H            1    LIG   0.0000
  42 H           -3.0446     3.8720    -2.2207 H            1    LIG   0.0000
  43 H           -3.4163     5.4798    -0.5040 H            1    LIG   0.0000
  44 H           -2.3747     4.6822     0.4685 H            1    LIG   0.0000
  45 H           -1.8287     5.4209    -0.8817 H            1    LIG   0.0000
  46 H           -1.5990     2.4027    -3.2308 H            1    LIG   0.0000
  47 H           -0.4829     1.5653    -2.3823 H            1    LIG   0.0000
  48 H            3.8610     3.4583    -1.6416 H            1    LIG   0.0000
  49 H            5.5016     5.1076    -2.1442 H            1    LIG   0.0000
  50 H            4.9156     7.0150    -3.4814 H            1    LIG   0.0000
  51 H            2.6775     7.2167    -4.2873 H            1    LIG   0.0000
  52 H            3.9142    -0.9549     0.0857 H            1    LIG   0.0000
  53 H            6.2265    -0.7459     0.6784 H            1    LIG   0.0000
  54 H            7.1266     1.3953     1.2373 H            1    LIG   0.0000
  55 H            5.7301     3.3328     1.2081 H            1    LIG   0.0000
  56 H            3.4158     3.1319     0.6185 H            1    LIG   0.0000
  57 H            0.3574    -3.0960    -5.2400 H            1    LIG   0.0000
  58 H            0.7671    -3.7885    -3.8190 H            1    LIG   0.0000
  59 H           -0.6490    -2.9874    -3.9585 H            1    LIG   0.0000
  60 H            0.3463    -0.6234    -5.4581 H            1    LIG   0.0000
  61 H           -0.6601    -0.5149    -4.1766 H            1    LIG   0.0000
  62 H            0.7488     0.3107    -4.1806 H            1    LIG   0.0000
  63 H            2.4989    -1.8410    -5.2460 H            1    LIG   0.0000
  64 H            2.9014    -0.9068    -3.9685 H            1    LIG   0.0000
  65 H            2.9087    -2.5335    -3.8250 H            1    LIG   0.0000
  66 H           -0.6237    -0.3929    -0.4021 H            1    LIG   0.0000
  67 H            0.0047    -0.2403     1.0973 H            1    LIG   0.0000
@<TRIPOS>BOND
   1        1        2 1
   2        2        3 1
   3        2        4 1
   4        4        5 1
   5        5        6 1
   6        6        7 2
   7        7        8 1
   8        8        9 ar
   9        9       10 ar
  10       10       11 ar
  11       11       12 ar
  12       12       13 ar
  13       13        8 ar
  14       13       14 1
  15       14       15 2
  16       14       16 1
  17       16        6 1
  18        4       17 am
  19       17       18 2
  20       17       19 1
  21       19       20 2
  22       20       21 1
  23       21       22 1
  24       22       23 ar
  25       23       24 ar
  26       24       25 ar
  27       25       26 ar
  28       26       27 ar
  29       27       22 ar
  30       21       28 1
  31       28       29 1
  32       29       30 2
  33       29       31 1
  34       31       32 1
  35       32       33 1
  36       32       34 1
  37       32       35 1
  38       28       36 1
  39       36       19 1
  40       16       37 1
  41       28       38 1
  42        1       39 1
  43        1       40 1
  44        1       41 1
  45        2       42 1
  46        3       43 1
  47        3       44 1
  48        3       45 1
  49        5       46 1
  50        5       47 1
  51        9       48 1
  52       10       49 1
  53       11       50 1
  54       12       51 1
  55       23       52 1
  56       24       53 1
  57       25       54 1
  58       26       55 1
  59       27       56 1
  60       33       57 1
  61       33       58 1
  62       33       59 1
  63       34       60 1
  64       34       61 1
  65       34       62 1
  66       35       63 1
  67       35       64 1
  68       35       65 1
  69       36       66 1
  70       36       67 1

@<TRIPOS>MOLECULE

  67   70
SMALL
USER_CHARGES
@<TRIPOS>ATOM
   1 C1          -3.9873     2.8702    -0.6615 C.3          1    LIG   0.0000
   2 C2          -2.8276     3.6396    -1.2726 C.3          1    LIG   0.0000
   3 C3          -2.5916     4.9147    -0.4796 C.3          1    LIG   0.0000
   4 N4          -1.6154     2.8089    -1.2369 N.am         1    LIG   0.0000
   5 C5          -0.9311     2.4530    -2.4883 C.3          1    LIG   0.0000
   6 C6           0.1106     3.5108    -2.8146 C.2          1    LIG   0.0000
   7 N7           1.3546     3.4142    -2.3776 N.2          1    LIG   0.0000
   8 C8           2.3021     4.3633    -2.6659 C.ar         1    LIG   0.0000
   9 C9           3.6082     4.2491    -2.1990 C.ar         1    LIG   0.0000
  10 C10          4.5694     5.2110    -2.4909 C.ar         1    LIG   0.0000
  11 C11          4.2342     6.3160    -3.2645 C.ar         1    LIG   0.0000
  12 C12          2.9286     6.4257    -3.7293 C.ar         1    LIG   0.0000
  13 C13          1.9590     5.4667    -3.4412 C.ar         1    LIG   0.0000
  14 C14          0.6190     5.5654    -3.9087 C.2          1    LIG   0.0000
  15 O15          0.2275     6.4971    -4.5950 O.2          1    LIG   0.0000
  16 N16         -0.2735     4.5800    -3.5807 N.pl3        1    LIG   0.0000
  17 C17         -1.1234     2.3663    -0.0373 C.2          1    LIG   0.0000
  18 O18         -1.6820     2.6568     0.9842 O.2          1    LIG   0.0000
  19 C19          0.0722     1.5470    -0.0021 C.2          1    LIG   0.0000
  20 N20          1.2569     1.9748    -0.0880 N.2          1    LIG   0.0000
  21 N21          2.1379     0.9582    -0.0375 N.pl3        1    LIG   0.0000
  22 C22          3.4902     1.0730     0.3071 C.ar         1    LIG   0.0000
  23 C23          4.2957    -0.0609     0.3207 C.ar         1    LIG   0.0000
  24 C24          5.6377     0.0623     0.6648 C.ar         1    LIG   0.0000
  25 C25          6.1614     1.3099     0.9903 C.ar         1    LIG   0.0000
  26 C26          5.3485     2.4386     0.9738 C.ar         1    LIG   0.0000
  27 C27          4.0049     2.3240     0.6314 C.ar         1    LIG   0.0000
  28 C28          1.4696    -0.2865    -0.4012 C.3          1    LIG   0.0000
  29 C29          1.4841    -0.5227    -1.9032 C.2          1    LIG   0.0000
  30 O30          0.9724    -1.5070    -2.3608 O.2          1    LIG   0.0000
  31 O31          2.0551     0.3484    -2.6977 O.3          1    LIG   0.0000
  32 C32          2.0130     0.0330    -4.0816 C.3          1    LIG   0.0000
  33 C33          2.7103     1.1280    -4.8723 C.3          1    LIG   0.0000
  34 C34          2.7182    -1.2921    -4.3209 C.3          1    LIG   0.0000
  35 C35          0.5656    -0.0746    -4.5331 C.3          1    LIG   0.0000
  36 C36          0.0964     0.0384     0.1413 C.3          1    LIG   0.0000
  37 H           -1.2177     4.6415    -3.9043 H            1    LIG   0.0000
  38 H            1.8711    -1.0623     0.0857 H            1    LIG   0.0000
  39 H           -4.8120     3.4353    -0.6858 H            1    LIG   0.0000
  40 H           -4.1426     2.0313    -1.1832 H            1    LIG   0.0000
  41 H           -3.7704     2.6377     0.2866 H            1    LIG   0.0000
  42 H           -3.0446     3.8720    -2.2207 H            1    LIG   0.0000
  43 H           -3.4163     5.4798    -0.5040 H            1    LIG   0.0000
  44 H           -2.3747     4.6822     0.4685 H            1    LIG   0.0000
  45 H           -1.8287     5.4209    -0.8817 H            1    LIG   0.0000
  46 H           -1.5990     2.4027    -3.2308 H            1    LIG   0.0000
  47 H           -0.4829     1.5653    -2.3823 H            1    LIG   0.0000
  48 H            3.8610     3.4583    -1.6416 H            1    LIG   0.0000
  49 H            5.5016     5.1076    -2.1442 H            1    LIG   0.0000
  50 H            4.9156     7.0150    -3.4814 H            1    LIG   0.0000
  51 H            2.6775     7.2167    -4.2873 H            1    LIG   0.0000
  52 H            3.9142    -0.9549     0.0857 H            1    LIG   0.0000
  53 H            6.2265    -0.7459     0.6784 H            1    LIG   0.0000
  54 H            7.1266     1.3953     1.2373 H            1    LIG   0.0000
  55 H            5.7301     3.3328     1.2081 H            1    LIG   0.0000
  56 H            3.4158     3.1319     0.6185 H            1    LIG   0.0000
  57 H            2.6807     0.9059    -5.8468 H            1    LIG   0.0000
  58 H            2.2464     1.9998    -4.7148 H            1    LIG   0.0000
  59 H            3.6626     1.1987    -4.5753 H            1    LIG   0.0000
  60 H            2.6886    -1.5142    -5.2955 H            1    LIG   0.0000
  61 H            3.6704    -1.2214    -4.0239 H            1    LIG   0.0000
  62 H            2.2594    -2.0125    -3.8008 H            1    LIG   0.0000
  63 H            0.5360    -0.2967    -5.5076 H            1    LIG   0.0000
  64 H            0.1069    -0.7950    -4.0129 H            1    LIG   0.0000
  65 H            0.1017     0.7972    -4.3756 H            1    LIG   0.0000
  66 H           -0.6237    -0.3929    -0.4021 H            1    LIG   0.0000
  67 H            0.0047    -0.2403     1.0973 H            1    LIG   0.0000
@<TRIPOS>BOND
   1        1        2 1
   2        2        3 1
   3        2        4 1
   4        4        5 1
   5        5        6 1
   6        6        7 2
   7        7        8 1
   8        8        9 ar
   9        9       10 ar
  10       10       11 ar
  11       11       12 ar
  12       12       13 ar
  13       13        8 ar
  14       13       14 1
  15       14       15 2
  16       14       16 1
  17       16        6 1
  18        4       17 am
  19       17       18 2
  20       17       19 1
  21       19       20 2
  22       20       21 1
  23       21       22 1
  24       22       23 ar
  25       23       24 ar
  26       24       25 ar
  27       25       26 ar
  28       26       27 ar
  29       27       22 ar
  30       21       28 1
  31       28       29 1
  32       29       30 2
  33       29       31 1
  34       31       32 1
  35       32       33 1
  36       32       34 1
  37       32       35 1
  38       28       36 1
  39       36       19 1
  40       16       37 1
  41       28       38 1
  42        1       39 1
  43        1       40 1
  44        1       41 1
  45        2       42 1
  46        3       43 1
  47        3       44 1
  48        3       45 1
  49        5       46 1
  50        5       47 1
  51        9       48 1
  52       10       49 1
  53       11       50 1
  54       12       51 1
  55       23       52 1
  56       24       53 1
  57       25       54 1
  58       26       55 1
  59       27       56 1
  60       33       57 1
  61       33       58 1
  62       33       59 1
  63       34       60 1
  64       34       61 1
  65       34       62 1
  66       35       63 1
  67       35       64 1
  68       35       65 1
  69       36       66 1
  70       36       67 1

@<TRIPOS>MOLECULE

  67   70
SMALL
USER_CHARGES
@<TRIPOS>ATOM
   1 C1          -2.5036     4.9817    -1.9084 C.3          1    LIG   0.0000
   2 C2          -2.8276     3.6396    -1.2726 C.3          1    LIG   0.0000
   3 C3          -3.8993     2.9372    -2.0903 C.3          1    LIG   0.0000
   4 N4          -1.6154     2.8089    -1.2369 N.am         1    LIG   0.0000
   5 C5          -0.9311     2.4530    -2.4883 C.3          1    LIG   0.0000
   6 C6           0.1106     3.5108    -2.8146 C.2          1    LIG   0.0000
   7 N7          -0.1855     4.5698    -3.5485 N.2          1    LIG   0.0000
   8 C8           0.7471     5.5297    -3.8491 C.ar         1    LIG   0.0000
   9 C9           0.4215     6.6396    -4.6232 C.ar         1    LIG   0.0000
  10 C10          1.3665     7.6133    -4.9284 C.ar         1    LIG   0.0000
  11 C11          2.6684     7.4899    -4.4577 C.ar         1    LIG   0.0000
  12 C12          2.9891     6.3801    -3.6843 C.ar         1    LIG   0.0000
  13 C13          2.0484     5.3994    -3.3740 C.ar         1    LIG   0.0000
  14 C14          2.3614     4.2578    -2.5848 C.2          1    LIG   0.0000
  15 O15          3.4758     4.0601    -2.1249 O.2          1    LIG   0.0000
  16 N16          1.3792     3.3395    -2.3256 N.pl3        1    LIG   0.0000
  17 C17         -1.1234     2.3663    -0.0373 C.2          1    LIG   0.0000
  18 O18         -1.6820     2.6568     0.9842 O.2          1    LIG   0.0000
  19 C19          0.0722     1.5470    -0.0021 C.2          1    LIG   0.0000
  20 N20          1.2569     1.9748    -0.0880 N.2          1    LIG   0.0000
  21 N21          2.1379     0.9582    -0.0375 N.pl3        1    LIG   0.0000
  22 C22          3.4902     1.0730     0.3071 C.ar         1    LIG   0.0000
  23 C23          4.2957    -0.0609     0.3207 C.ar         1    LIG   0.0000
  24 C24          5.6377     0.0623     0.6648 C.ar         1    LIG   0.0000
  25 C25          6.1614     1.3099     0.9903 C.ar         1    LIG   0.0000
  26 C26          5.3485     2.4386     0.9738 C.ar         1    LIG   0.0000
  27 C27          4.0049     2.3240     0.6314 C.ar         1    LIG   0.0000
  28 C28          1.4696    -0.2865    -0.4012 C.3          1    LIG   0.0000
  29 C29          1.4841    -0.5227    -1.9032 C.2          1    LIG   0.0000
  30 O30          2.0071     0.2752    -2.6310 O.2          1    LIG   0.0000
  31 O31          0.9255    -1.5972    -2.4027 O.3          1    LIG   0.0000
  32 C32          0.9944    -1.7216    -3.8156 C.3          1    LIG   0.0000
  33 C33          0.3088    -3.0084    -4.2450 C.3          1    LIG   0.0000
  34 C34          0.2978    -0.5359    -4.4631 C.3          1    LIG   0.0000
  35 C35          2.4504    -1.7535    -4.2510 C.3          1    LIG   0.0000
  36 C36          0.0964     0.0384     0.1413 C.3          1    LIG   0.0000
  37 H            1.5904     2.5337    -1.7723 H            1    LIG   0.0000
  38 H            1.8711    -1.0623     0.0857 H            1    LIG   0.0000
  39 H           -3.3282     5.5468    -1.9328 H            1    LIG   0.0000
  40 H           -1.7985     5.4438    -1.3705 H            1    LIG   0.0000
  41 H           -2.1708     4.8374    -2.8403 H            1    LIG   0.0000
  42 H           -3.1604     3.7839    -0.3408 H            1    LIG   0.0000
  43 H           -4.7239     3.5023    -2.1146 H            1    LIG   0.0000
  44 H           -3.5665     2.7929    -3.0222 H            1    LIG   0.0000
  45 H           -4.1125     2.0542    -1.6720 H            1    LIG   0.0000
  46 H           -1.5990     2.4027    -3.2308 H            1    LIG   0.0000
  47 H           -0.4829     1.5653    -2.3823 H            1    LIG   0.0000
  48 H           -0.5121     6.7391    -4.9674 H            1    LIG   0.0000
  49 H            1.1093     8.4021    -5.4866 H            1    LIG   0.0000
  50 H            3.3577     8.1826    -4.6701 H            1    LIG   0.0000
  51 H            3.9229     6.2824    -3.3402 H            1    LIG   0.0000
  52 H            3.9142    -0.9549     0.0857 H            1    LIG   0.0000
  53 H            6.2265    -0.7459     0.6784 H            1    LIG   0.0000
  54 H            7.1266     1.3953     1.2373 H            1    LIG   0.0000
  55 H            5.7301     3.3328     1.2081 H            1    LIG   0.0000
  56 H            3.4158     3.1319     0.6185 H            1    LIG   0.0000
  57 H            0.3574    -3.0960    -5.2400 H            1    LIG   0.0000
  58 H            0.7671    -3.7885    -3.8190 H            1    LIG   0.0000
  59 H           -0.6490    -2.9874    -3.9585 H            1    LIG   0.0000
  60 H            0.3463    -0.6234    -5.4581 H            1    LIG   0.0000
  61 H           -0.6601    -0.5149    -4.1766 H            1    LIG   0.0000
  62 H            0.7488     0.3107    -4.1806 H            1    LIG   0.0000
  63 H            2.4989    -1.8410    -5.2460 H            1    LIG   0.0000
  64 H            2.9014    -0.9068    -3.9685 H            1    LIG   0.0000
  65 H            2.9087    -2.5335    -3.8250 H            1    LIG   0.0000
  66 H           -0.6237    -0.3929    -0.4021 H            1    LIG   0.0000
  67 H            0.0047    -0.2403     1.0973 H            1    LIG   0.0000
@<TRIPOS>BOND
   1        1        2 1
   2        2        3 1
   3        2        4 1
   4        4        5 1
   5        5        6 1
   6        6        7 2
   7        7        8 1
   8        8        9 ar
   9        9       10 ar
  10       10       11 ar
  11       11       12 ar
  12       12       13 ar
  13       13        8 ar
  14       13       14 1
  15       14       15 2
  16       14       16 1
  17       16        6 1
  18        4       17 am
  19       17       18 2
  20       17       19 1
  21       19       20 2
  22       20       21 1
  23       21       22 1
  24       22       23 ar
  25       23       24 ar
  26       24       25 ar
  27       25       26 ar
  28       26       27 ar
  29       27       22 ar
  30       21       28 1
  31       28       29 1
  32       29       30 2
  33       29       31 1
  34       31       32 1
  35       32       33 1
  36       32       34 1
  37       32       35 1
  38       28       36 1
  39       36       19 1
  40       16       37 1
  41       28       38 1
  42        1       39 1
  43        1       40 1
  44        1       41 1
  45        2       42 1
  46        3       43 1
  47        3       44 1
  48        3       45 1
  49        5       46 1
  50        5       47 1
  51        9       48 1
  52       10       49 1
  53       11       50 1
  54       12       51 1
  55       23       52 1
  56       24       53 1
  57       25       54 1
  58       26       55 1
  59       27       56 1
  60       33       57 1
  61       33       58 1
  62       33       59 1
  63       34       60 1
  64       34       61 1
  65       34       62 1
  66       35       63 1
  67       35       64 1
  68       35       65 1
  69       36       66 1
  70       36       67 1

@<TRIPOS>MOLECULE

  67   70
SMALL
USER_CHARGES
@<TRIPOS>ATOM
   1 C1          -2.5036     4.9817    -1.9084 C.3          1    LIG   0.0000
   2 C2          -2.8276     3.6396    -1.2726 C.3          1    LIG   0.0000
   3 C3          -3.8993     2.9372    -2.0903 C.3          1    LIG   0.0000
   4 N4          -1.6154     2.8089    -1.2369 N.am         1    LIG   0.0000
   5 C5          -0.9311     2.4530    -2.4883 C.3          1    LIG   0.0000
   6 C6           0.1106     3.5108    -2.8146 C.2          1    LIG   0.0000
   7 N7          -0.1855     4.5698    -3.5485 N.2          1    LIG   0.0000
   8 C8           0.7471     5.5297    -3.8491 C.ar         1    LIG   0.0000
   9 C9           0.4215     6.6396    -4.6232 C.ar         1    LIG   0.0000
  10 C10          1.3665     7.6133    -4.9284 C.ar         1    LIG   0.0000
  11 C11          2.6684     7.4899    -4.4577 C.ar         1    LIG   0.0000
  12 C12          2.9891     6.3801    -3.6843 C.ar         1    LIG   0.0000
  13 C13          2.0484     5.3994    -3.3740 C.ar         1    LIG   0.0000
  14 C14          2.3614     4.2578    -2.5848 C.2          1    LIG   0.0000
  15 O15          3.4758     4.0601    -2.1249 O.2          1    LIG   0.0000
  16 N16          1.3792     3.3395    -2.3256 N.pl3        1    LIG   0.0000
  17 C17         -1.1234     2.3663    -0.0373 C.2          1    LIG   0.0000
  18 O18         -1.6820     2.6568     0.9842 O.2          1    LIG   0.0000
  19 C19          0.0722     1.5470    -0.0021 C.2          1    LIG   0.0000
  20 N20          1.2569     1.9748    -0.0880 N.2          1    LIG   0.0000
  21 N21          2.1379     0.9582    -0.0375 N.pl3        1    LIG   0.0000
  22 C22          3.4902     1.0730     0.3071 C.ar         1    LIG   0.0000
  23 C23          4.2957    -0.0609     0.3207 C.ar         1    LIG   0.0000
  24 C24          5.6377     0.0623     0.6648 C.ar         1    LIG   0.0000
  25 C25          6.1614     1.3099     0.9903 C.ar         1    LIG   0.0000
  26 C26          5.3485     2.4386     0.9738 C.ar         1    LIG   0.0000
  27 C27          4.0049     2.3240     0.6314 C.ar         1    LIG   0.0000
  28 C28          1.4696    -0.2865    -0.4012 C.3          1    LIG   0.0000
  29 C29          1.4841    -0.5227    -1.9032 C.2          1    LIG   0.0000
  30 O30          0.9724    -1.5070    -2.3608 O.2          1    LIG   0.0000
  31 O31          2.0551     0.3484    -2.6977 O.3          1    LIG   0.0000
  32 C32          2.0130     0.0330    -4.0816 C.3          1    LIG   0.0000
  33 C33          2.7103     1.1280    -4.8723 C.3          1    LIG   0.0000
  34 C34          2.7182    -1.2921    -4.3209 C.3          1    LIG   0.0000
  35 C35          0.5656    -0.0746    -4.5331 C.3          1    LIG   0.0000
  36 C36          0.0964     0.0384     0.1413 C.3          1    LIG   0.0000
  37 H            1.5904     2.5337    -1.7723 H            1    LIG   0.0000
  38 H            1.8711    -1.0623     0.0857 H            1    LIG   0.0000
  39 H           -3.3282     5.5468    -1.9328 H            1    LIG   0.0000
  40 H           -1.7985     5.4438    -1.3705 H            1    LIG   0.0000
  41 H           -2.1708     4.8374    -2.8403 H            1    LIG   0.0000
  42 H           -3.1604     3.7839    -0.3408 H            1    LIG   0.0000
  43 H           -4.7239     3.5023    -2.1146 H            1    LIG   0.0000
  44 H           -3.5665     2.7929    -3.0222 H            1    LIG   0.0000
  45 H           -4.1125     2.0542    -1.6720 H            1    LIG   0.0000
  46 H           -1.5990     2.4027    -3.2308 H            1    LIG   0.0000
  47 H           -0.4829     1.5653    -2.3823 H            1    LIG   0.0000
  48 H           -0.5121     6.7391    -4.9674 H            1    LIG   0.0000
  49 H            1.1093     8.4021    -5.4866 H            1    LIG   0.0000
  50 H            3.3577     8.1826    -4.6701 H            1    LIG   0.0000
  51 H            3.9229     6.2824    -3.3402 H            1    LIG   0.0000
  52 H            3.9142    -0.9549     0.0857 H            1    LIG   0.0000
  53 H            6.2265    -0.7459     0.6784 H            1    LIG   0.0000
  54 H            7.1266     1.3953     1.2373 H            1    LIG   0.0000
  55 H            5.7301     3.3328     1.2081 H            1    LIG   0.0000
  56 H            3.4158     3.1319     0.6185 H            1    LIG   0.0000
  57 H            2.6807     0.9059    -5.8468 H            1    LIG   0.0000
  58 H            2.2464     1.9998    -4.7148 H            1    LIG   0.0000
  59 H            3.6626     1.1987    -4.5753 H            1    LIG   0.0000
  60 H            2.6886    -1.5142    -5.2955 H            1    LIG   0.0000
  61 H            3.6704    -1.2214    -4.0239 H            1    LIG   0.0000
  62 H            2.2594    -2.0125    -3.8008 H            1    LIG   0.0000
  63 H            0.5360    -0.2967    -5.5076 H            1    LIG   0.0000
  64 H            0.1069    -0.7950    -4.0129 H            1    LIG   0.0000
  65 H            0.1017     0.7972    -4.3756 H            1    LIG   0.0000
  66 H           -0.6237    -0.3929    -0.4021 H            1    LIG   0.0000
  67 H            0.0047    -0.2403     1.0973 H            1    LIG   0.0000
@<TRIPOS>BOND
   1        1        2 1
   2        2        3 1
   3        2        4 1
   4        4        5 1
   5        5        6 1
   6        6        7 2
   7        7        8 1
   8        8        9 ar
   9        9       10 ar
  10       10       11 ar
  11       11       12 ar
  12       12       13 ar
  13       13        8 ar
  14       13       14 1
  15       14       15 2
  16       14       16 1
  17       16        6 1
  18        4       17 am
  19       17       18 2
  20       17       19 1
  21       19       20 2
  22       20       21 1
  23       21       22 1
  24       22       23 ar
  25       23       24 ar
  26       24       25 ar
  27       25       26 ar
  28       26       27 ar
  29       27       22 ar
  30       21       28 1
  31       28       29 1
  32       29       30 2
  33       29       31 1
  34       31       32 1
  35       32       33 1
  36       32       34 1
  37       32       35 1
  38       28       36 1
  39       36       19 1
  40       16       37 1
  41       28       38 1
  42        1       39 1
  43        1       40 1
  44        1       41 1
  45        2       42 1
  46        3       43 1
  47        3       44 1
  48        3       45 1
  49        5       46 1
  50        5       47 1
  51        9       48 1
  52       10       49 1
  53       11       50 1
  54       12       51 1
  55       23       52 1
  56       24       53 1
  57       25       54 1
  58       26       55 1
  59       27       56 1
  60       33       57 1
  61       33       58 1
  62       33       59 1
  63       34       60 1
  64       34       61 1
  65       34       62 1
  66       35       63 1
  67       35       64 1
  68       35       65 1
  69       36       66 1
  70       36       67 1

@<TRIPOS>MOLECULE

  67   70
SMALL
USER_CHARGES
@<TRIPOS>ATOM
   1 C1          -1.8828     1.6755    -3.3828 C.3          1    LIG   0.0000
   2 C2          -0.9311     2.4530    -2.4883 C.3          1    LIG   0.0000
   3 C3          -0.4871     3.7200    -3.2009 C.3          1    LIG   0.0000
   4 N4          -1.6154     2.8089    -1.2369 N.am         1    LIG   0.0000
   5 C5          -2.8276     3.6396    -1.2726 C.3          1    LIG   0.0000
   6 C6          -4.0513     2.7455    -1.3900 C.2          1    LIG   0.0000
   7 N7          -4.5387     2.3914    -2.5667 N.2          1    LIG   0.0000
   8 C8          -5.6426     1.5855    -2.6837 C.ar         1    LIG   0.0000
   9 C9          -6.1453     1.2208    -3.9291 C.ar         1    LIG   0.0000
  10 C10         -7.2645     0.4037    -4.0485 C.ar         1    LIG   0.0000
  11 C11         -7.9059    -0.0671    -2.9088 C.ar         1    LIG   0.0000
  12 C12         -7.4000     0.2992    -1.6668 C.ar         1    LIG   0.0000
  13 C13         -6.2793     1.1179    -1.5381 C.ar         1    LIG   0.0000
  14 C14         -5.7503     1.5021    -0.2746 C.2          1    LIG   0.0000
  15 O15         -6.2422     1.1399     0.7834 O.2          1    LIG   0.0000
  16 N16         -4.6454     2.3100    -0.2345 N.pl3        1    LIG   0.0000
  17 C17         -1.1234     2.3663    -0.0373 C.2          1    LIG   0.0000
  18 O18         -1.6820     2.6568     0.9842 O.2          1    LIG   0.0000
  19 C19          0.0722     1.5470    -0.0021 C.2          1    LIG   0.0000
  20 N20          1.2569     1.9748    -0.0880 N.2          1    LIG   0.0000
  21 N21          2.1379     0.9582    -0.0375 N.pl3        1    LIG   0.0000
  22 C22          3.4902     1.0730     0.3071 C.ar         1    LIG   0.0000
  23 C23          4.2957    -0.0609     0.3207 C.ar         1    LIG   0.0000
  24 C24          5.6377     0.0623     0.6648 C.ar         1    LIG   0.0000
  25 C25          6.1614     1.3099     0.9903 C.ar         1    LIG   0.0000
  26 C26          5.3485     2.4386     0.9738 C.ar         1    LIG   0.0000
  27 C27          4.0049     2.3240     0.6314 C.ar         1    LIG   0.0000
  28 C28          1.4696    -0.2865    -0.4012 C.3          1    LIG   0.0000
  29 C29          1.4841    -0.5227    -1.9032 C.2          1    LIG   0.0000
  30 O30          2.0071     0.2752    -2.6310 O.2          1    LIG   0.0000
  31 O31          0.9255    -1.5972    -2.4027 O.3          1    LIG   0.0000
  32 C32          0.9944    -1.7216    -3.8156 C.3          1    LIG   0.0000
  33 C33          0.3088    -3.0084    -4.2450 C.3          1    LIG   0.0000
  34 C34          0.2978    -0.5359    -4.4631 C.3          1    LIG   0.0000
  35 C35          2.4504    -1.7535    -4.2510 C.3          1    LIG   0.0000
  36 C36          0.0964     0.0384     0.1413 C.3          1    LIG   0.0000
  37 H           -4.2672     2.5857     0.6493 H            1    LIG   0.0000
  38 H            1.8711    -1.0623     0.0857 H            1    LIG   0.0000
  39 H           -1.4172     1.4334    -4.2341 H            1    LIG   0.0000
  40 H           -2.1749     0.8420    -2.9139 H            1    LIG   0.0000
  41 H           -2.6823     2.2397    -3.5889 H            1    LIG   0.0000
  42 H           -0.1315     1.8889    -2.2822 H            1    LIG   0.0000
  43 H           -0.0215     3.4779    -4.0522 H            1    LIG   0.0000
  44 H           -1.2866     4.2842    -3.4070 H            1    LIG   0.0000
  45 H            0.1391     4.2315    -2.6124 H            1    LIG   0.0000
  46 H           -2.7873     4.2544    -2.0603 H            1    LIG   0.0000
  47 H           -2.8876     4.1781    -0.4322 H            1    LIG   0.0000
  48 H           -5.6920     1.5533    -4.7561 H            1    LIG   0.0000
  49 H           -7.6076     0.1549    -4.9542 H            1    LIG   0.0000
  50 H           -8.7117    -0.6549    -2.9805 H            1    LIG   0.0000
  51 H           -7.8539    -0.0348    -0.8407 H            1    LIG   0.0000
  52 H            3.9142    -0.9549     0.0857 H            1    LIG   0.0000
  53 H            6.2265    -0.7459     0.6784 H            1    LIG   0.0000
  54 H            7.1266     1.3953     1.2373 H            1    LIG   0.0000
  55 H            5.7301     3.3328     1.2081 H            1    LIG   0.0000
  56 H            3.4158     3.1319     0.6185 H            1    LIG   0.0000
  57 H            0.3574    -3.0960    -5.2400 H            1    LIG   0.0000
  58 H            0.7671    -3.7885    -3.8190 H            1    LIG   0.0000
  59 H           -0.6490    -2.9874    -3.9585 H            1    LIG   0.0000
  60 H            0.3463    -0.6234    -5.4581 H            1    LIG   0.0000
  61 H           -0.6601    -0.5149    -4.1766 H            1    LIG   0.0000
  62 H            0.7488     0.3107    -4.1806 H            1    LIG   0.0000
  63 H            2.4989    -1.8410    -5.2460 H            1    LIG   0.0000
  64 H            2.9014    -0.9068    -3.9685 H            1    LIG   0.0000
  65 H            2.9087    -2.5335    -3.8250 H            1    LIG   0.0000
  66 H           -0.6237    -0.3929    -0.4021 H            1    LIG   0.0000
  67 H            0.0047    -0.2403     1.0973 H            1    LIG   0.0000
@<TRIPOS>BOND
   1        1        2 1
   2        2        3 1
   3        2        4 1
   4        4        5 1
   5        5        6 1
   6        6        7 2
   7        7        8 1
   8        8        9 ar
   9        9       10 ar
  10       10       11 ar
  11       11       12 ar
  12       12       13 ar
  13       13        8 ar
  14       13       14 1
  15       14       15 2
  16       14       16 1
  17       16        6 1
  18        4       17 am
  19       17       18 2
  20       17       19 1
  21       19       20 2
  22       20       21 1
  23       21       22 1
  24       22       23 ar
  25       23       24 ar
  26       24       25 ar
  27       25       26 ar
  28       26       27 ar
  29       27       22 ar
  30       21       28 1
  31       28       29 1
  32       29       30 2
  33       29       31 1
  34       31       32 1
  35       32       33 1
  36       32       34 1
  37       32       35 1
  38       28       36 1
  39       36       19 1
  40       16       37 1
  41       28       38 1
  42        1       39 1
  43        1       40 1
  44        1       41 1
  45        2       42 1
  46        3       43 1
  47        3       44 1
  48        3       45 1
  49        5       46 1
  50        5       47 1
  51        9       48 1
  52       10       49 1
  53       11       50 1
  54       12       51 1
  55       23       52 1
  56       24       53 1
  57       25       54 1
  58       26       55 1
  59       27       56 1
  60       33       57 1
  61       33       58 1
  62       33       59 1
  63       34       60 1
  64       34       61 1
  65       34       62 1
  66       35       63 1
  67       35       64 1
  68       35       65 1
  69       36       66 1
  70       36       67 1

@<TRIPOS>MOLECULE

  67   70
SMALL
USER_CHARGES
@<TRIPOS>ATOM
   1 C1          -1.8828     1.6755    -3.3828 C.3          1    LIG   0.0000
   2 C2          -0.9311     2.4530    -2.4883 C.3          1    LIG   0.0000
   3 C3          -0.4871     3.7200    -3.2009 C.3          1    LIG   0.0000
   4 N4          -1.6154     2.8089    -1.2369 N.am         1    LIG   0.0000
   5 C5          -2.8276     3.6396    -1.2726 C.3          1    LIG   0.0000
   6 C6          -2.4396     5.1063    -1.1800 C.2          1    LIG   0.0000
   7 N7          -2.1939     5.8263    -2.2612 N.2          1    LIG   0.0000
   8 C8          -1.8426     7.1503    -2.1886 C.ar         1    LIG   0.0000
   9 C9          -1.5864     7.8963    -3.3352 C.ar         1    LIG   0.0000
  10 C10         -1.2302     9.2387    -3.2624 C.ar         1    LIG   0.0000
  11 C11         -1.1236     9.8633    -2.0253 C.ar         1    LIG   0.0000
  12 C12         -1.3810     9.1145    -0.8826 C.ar         1    LIG   0.0000
  13 C13         -1.7382     7.7687    -0.9464 C.ar         1    LIG   0.0000
  14 C14         -2.0038     6.9891     0.2136 C.2          1    LIG   0.0000
  15 O15         -1.9375     7.4467     1.3443 O.2          1    LIG   0.0000
  16 N16         -2.3486     5.6723     0.0647 N.pl3        1    LIG   0.0000
  17 C17         -1.1234     2.3663    -0.0373 C.2          1    LIG   0.0000
  18 O18         -1.6820     2.6568     0.9842 O.2          1    LIG   0.0000
  19 C19          0.0722     1.5470    -0.0021 C.2          1    LIG   0.0000
  20 N20          1.2569     1.9748    -0.0880 N.2          1    LIG   0.0000
  21 N21          2.1379     0.9582    -0.0375 N.pl3        1    LIG   0.0000
  22 C22          3.4902     1.0730     0.3071 C.ar         1    LIG   0.0000
  23 C23          4.2957    -0.0609     0.3207 C.ar         1    LIG   0.0000
  24 C24          5.6377     0.0623     0.6648 C.ar         1    LIG   0.0000
  25 C25          6.1614     1.3099     0.9903 C.ar         1    LIG   0.0000
  26 C26          5.3485     2.4386     0.9738 C.ar         1    LIG   0.0000
  27 C27          4.0049     2.3240     0.6314 C.ar         1    LIG   0.0000
  28 C28          1.4696    -0.2865    -0.4012 C.3          1    LIG   0.0000
  29 C29          1.4841    -0.5227    -1.9032 C.2          1    LIG   0.0000
  30 O30          2.0071     0.2752    -2.6310 O.2          1    LIG   0.0000
  31 O31          0.9255    -1.5972    -2.4027 O.3          1    LIG   0.0000
  32 C32          0.9944    -1.7216    -3.8156 C.3          1    LIG   0.0000
  33 C33          0.3088    -3.0084    -4.2450 C.3          1    LIG   0.0000
  34 C34          0.2978    -0.5359    -4.4631 C.3          1    LIG   0.0000
  35 C35          2.4504    -1.7535    -4.2510 C.3          1    LIG   0.0000
  36 C36          0.0964     0.0384     0.1413 C.3          1    LIG   0.0000
  37 H           -2.5363     5.1166     0.8746 H            1    LIG   0.0000
  38 H            1.8711    -1.0623     0.0857 H            1    LIG   0.0000
  39 H           -1.4172     1.4334    -4.2341 H            1    LIG   0.0000
  40 H           -2.1749     0.8420    -2.9139 H            1    LIG   0.0000
  41 H           -2.6823     2.2397    -3.5889 H            1    LIG   0.0000
  42 H           -0.1315     1.8889    -2.2822 H            1    LIG   0.0000
  43 H           -0.0215     3.4779    -4.0522 H            1    LIG   0.0000
  44 H           -1.2866     4.2842    -3.4070 H            1    LIG   0.0000
  45 H            0.1391     4.2315    -2.6124 H            1    LIG   0.0000
  46 H           -3.4178     3.4015    -0.5012 H            1    LIG   0.0000
  47 H           -3.3174     3.4778    -2.1294 H            1    LIG   0.0000
  48 H           -1.6600     7.4577    -4.2308 H            1    LIG   0.0000
  49 H           -1.0507     9.7546    -4.1000 H            1    LIG   0.0000
  50 H           -0.8680    10.8278    -1.9588 H            1    LIG   0.0000
  51 H           -1.3078     9.5548     0.0123 H            1    LIG   0.0000
  52 H            3.9142    -0.9549     0.0857 H            1    LIG   0.0000
  53 H            6.2265    -0.7459     0.6784 H            1    LIG   0.0000
  54 H            7.1266     1.3953     1.2373 H            1    LIG   0.0000
  55 H            5.7301     3.3328     1.2081 H            1    LIG   0.0000
  56 H            3.4158     3.1319     0.6185 H            1    LIG   0.0000
  57 H            0.3574    -3.0960    -5.2400 H            1    LIG   0.0000
  58 H            0.7671    -3.7885    -3.8190 H            1    LIG   0.0000
  59 H           -0.6490    -2.9874    -3.9585 H            1    LIG   0.0000
  60 H            0.3463    -0.6234    -5.4581 H            1    LIG   0.0000
  61 H           -0.6601    -0.5149    -4.1766 H            1    LIG   0.0000
  62 H            0.7488     0.3107    -4.1806 H            1    LIG   0.0000
  63 H            2.4989    -1.8410    -5.2460 H            1    LIG   0.0000
  64 H            2.9014    -0.9068    -3.9685 H            1    LIG   0.0000
  65 H            2.9087    -2.5335    -3.8250 H            1    LIG   0.0000
  66 H           -0.6237    -0.3929    -0.4021 H            1    LIG   0.0000
  67 H            0.0047    -0.2403     1.0973 H            1    LIG   0.0000
@<TRIPOS>BOND
   1        1        2 1
   2        2        3 1
   3        2        4 1
   4        4        5 1
   5        5        6 1
   6        6        7 2
   7        7        8 1
   8        8        9 ar
   9        9       10 ar
  10       10       11 ar
  11       11       12 ar
  12       12       13 ar
  13       13        8 ar
  14       13       14 1
  15       14       15 2
  16       14       16 1
  17       16        6 1
  18        4       17 am
  19       17       18 2
  20       17       19 1
  21       19       20 2
  22       20       21 1
  23       21       22 1
  24       22       23 ar
  25       23       24 ar
  26       24       25 ar
  27       25       26 ar
  28       26       27 ar
  29       27       22 ar
  30       21       28 1
  31       28       29 1
  32       29       30 2
  33       29       31 1
  34       31       32 1
  35       32       33 1
  36       32       34 1
  37       32       35 1
  38       28       36 1
  39       36       19 1
  40       16       37 1
  41       28       38 1
  42        1       39 1
  43        1       40 1
  44        1       41 1
  45        2       42 1
  46        3       43 1
  47        3       44 1
  48        3       45 1
  49        5       46 1
  50        5       47 1
  51        9       48 1
  52       10       49 1
  53       11       50 1
  54       12       51 1
  55       23       52 1
  56       24       53 1
  57       25       54 1
  58       26       55 1
  59       27       56 1
  60       33       57 1
  61       33       58 1
  62       33       59 1
  63       34       60 1
  64       34       61 1
  65       34       62 1
  66       35       63 1
  67       35       64 1
  68       35       65 1
  69       36       66 1
  70       36       67 1

@<TRIPOS>MOLECULE

  67   70
SMALL
USER_CHARGES
@<TRIPOS>ATOM
   1 C1          -2.5733     4.9626     0.0122 C.3          1    LIG   0.0000
   2 C2          -2.7409     3.8662     1.0516 C.3          1    LIG   0.0000
   3 C3          -3.9370     3.0017     0.6877 C.3          1    LIG   0.0000
   4 N4          -1.5286     3.0355     1.0873 N.am         1    LIG   0.0000
   5 C5          -0.7512     2.9229     2.3298 C.3          1    LIG   0.0000
   6 C6          -1.2705     1.7519     3.1481 C.2          1    LIG   0.0000
   7 N7          -0.7780     0.5338     3.0022 N.2          1    LIG   0.0000
   8 C8          -1.2398    -0.5298     3.7351 C.ar         1    LIG   0.0000
   9 C9          -0.7122    -1.8071     3.5710 C.ar         1    LIG   0.0000
  10 C10         -1.1800    -2.8859     4.3138 C.ar         1    LIG   0.0000
  11 C11         -2.1958    -2.7007     5.2442 C.ar         1    LIG   0.0000
  12 C12         -2.7194    -1.4230     5.4054 C.ar         1    LIG   0.0000
  13 C13         -2.2569    -0.3364     4.6649 C.ar         1    LIG   0.0000
  14 C14         -2.7831     0.9764     4.8177 C.2          1    LIG   0.0000
  15 O15         -3.6757     1.2406     5.6089 O.2          1    LIG   0.0000
  16 N16         -2.2735     1.9901     4.0510 N.pl3        1    LIG   0.0000
  17 C17         -1.1234     2.3663    -0.0373 C.2          1    LIG   0.0000
  18 O18         -1.7581     2.4582    -1.0516 O.2          1    LIG   0.0000
  19 C19          0.0722     1.5470    -0.0021 C.2          1    LIG   0.0000
  20 N20          1.2569     1.9748    -0.0880 N.2          1    LIG   0.0000
  21 N21          2.1379     0.9582    -0.0375 N.pl3        1    LIG   0.0000
  22 C22          3.4902     1.0730     0.3071 C.ar         1    LIG   0.0000
  23 C23          4.2957    -0.0609     0.3207 C.ar         1    LIG   0.0000
  24 C24          5.6377     0.0623     0.6648 C.ar         1    LIG   0.0000
  25 C25          6.1614     1.3099     0.9903 C.ar         1    LIG   0.0000
  26 C26          5.3485     2.4386     0.9738 C.ar         1    LIG   0.0000
  27 C27          4.0049     2.3240     0.6314 C.ar         1    LIG   0.0000
  28 C28          1.4696    -0.2865    -0.4012 C.3          1    LIG   0.0000
  29 C29          1.4841    -0.5227    -1.9032 C.2          1    LIG   0.0000
  30 O30          2.0071     0.2752    -2.6310 O.2          1    LIG   0.0000
  31 O31          0.9255    -1.5972    -2.4027 O.3          1    LIG   0.0000
  32 C32          0.9944    -1.7216    -3.8156 C.3          1    LIG   0.0000
  33 C33          0.3088    -3.0084    -4.2450 C.3          1    LIG   0.0000
  34 C34          0.2978    -0.5359    -4.4631 C.3          1    LIG   0.0000
  35 C35          2.4504    -1.7535    -4.2510 C.3          1    LIG   0.0000
  36 C36          0.0964     0.0384     0.1413 C.3          1    LIG   0.0000
  37 H           -2.6379     2.9159     4.1512 H            1    LIG   0.0000
  38 H            1.8711    -1.0623     0.0857 H            1    LIG   0.0000
  39 H           -3.3979     5.5278    -0.0121 H            1    LIG   0.0000
  40 H           -1.7864     5.5314     0.2516 H            1    LIG   0.0000
  41 H           -2.4253     4.5501    -0.8866 H            1    LIG   0.0000
  42 H           -2.8889     4.2788     1.9504 H            1    LIG   0.0000
  43 H           -4.7616     3.5669     0.6634 H            1    LIG   0.0000
  44 H           -3.7890     2.5892    -0.2111 H            1    LIG   0.0000
  45 H           -4.0472     2.2804     1.3715 H            1    LIG   0.0000
  46 H           -0.8441     3.7664     2.8588 H            1    LIG   0.0000
  47 H            0.2123     2.7731     2.1078 H            1    LIG   0.0000
  48 H            0.0191    -1.9524     2.9046 H            1    LIG   0.0000
  49 H           -0.7855    -3.7947     4.1784 H            1    LIG   0.0000
  50 H           -2.5415    -3.4679     5.7845 H            1    LIG   0.0000
  51 H           -3.4501    -1.2792     6.0727 H            1    LIG   0.0000
  52 H            3.9142    -0.9549     0.0857 H            1    LIG   0.0000
  53 H            6.2265    -0.7459     0.6784 H            1    LIG   0.0000
  54 H            7.1266     1.3953     1.2373 H            1    LIG   0.0000
  55 H            5.7301     3.3328     1.2081 H            1    LIG   0.0000
  56 H            3.4158     3.1319     0.6185 H            1    LIG   0.0000
  57 H            0.3574    -3.0960    -5.2400 H            1    LIG   0.0000
  58 H            0.7671    -3.7885    -3.8190 H            1    LIG   0.0000
  59 H           -0.6490    -2.9874    -3.9585 H            1    LIG   0.0000
  60 H            0.3463    -0.6234    -5.4581 H            1    LIG   0.0000
  61 H           -0.6601    -0.5149    -4.1766 H            1    LIG   0.0000
  62 H            0.7488     0.3107    -4.1806 H            1    LIG   0.0000
  63 H            2.4989    -1.8410    -5.2460 H            1    LIG   0.0000
  64 H            2.9014    -0.9068    -3.9685 H            1    LIG   0.0000
  65 H            2.9087    -2.5335    -3.8250 H            1    LIG   0.0000
  66 H           -0.6237    -0.3929    -0.4021 H            1    LIG   0.0000
  67 H            0.0047    -0.2403     1.0973 H            1    LIG   0.0000
@<TRIPOS>BOND
   1        1        2 1
   2        2        3 1
   3        2        4 1
   4        4        5 1
   5        5        6 1
   6        6        7 2
   7        7        8 1
   8        8        9 ar
   9        9       10 ar
  10       10       11 ar
  11       11       12 ar
  12       12       13 ar
  13       13        8 ar
  14       13       14 1
  15       14       15 2
  16       14       16 1
  17       16        6 1
  18        4       17 am
  19       17       18 2
  20       17       19 1
  21       19       20 2
  22       20       21 1
  23       21       22 1
  24       22       23 ar
  25       23       24 ar
  26       24       25 ar
  27       25       26 ar
  28       26       27 ar
  29       27       22 ar
  30       21       28 1
  31       28       29 1
  32       29       30 2
  33       29       31 1
  34       31       32 1
  35       32       33 1
  36       32       34 1
  37       32       35 1
  38       28       36 1
  39       36       19 1
  40       16       37 1
  41       28       38 1
  42        1       39 1
  43        1       40 1
  44        1       41 1
  45        2       42 1
  46        3       43 1
  47        3       44 1
  48        3       45 1
  49        5       46 1
  50        5       47 1
  51        9       48 1
  52       10       49 1
  53       11       50 1
  54       12       51 1
  55       23       52 1
  56       24       53 1
  57       25       54 1
  58       26       55 1
  59       27       56 1
  60       33       57 1
  61       33       58 1
  62       33       59 1
  63       34       60 1
  64       34       61 1
  65       34       62 1
  66       35       63 1
  67       35       64 1
  68       35       65 1
  69       36       66 1
  70       36       67 1

@<TRIPOS>MOLECULE

  67   70
SMALL
USER_CHARGES
@<TRIPOS>ATOM
   1 C1          -2.5733     4.9626     0.0122 C.3          1    LIG   0.0000
   2 C2          -2.7409     3.8662     1.0516 C.3          1    LIG   0.0000
   3 C3          -3.9370     3.0017     0.6877 C.3          1    LIG   0.0000
   4 N4          -1.5286     3.0355     1.0873 N.am         1    LIG   0.0000
   5 C5          -0.7512     2.9229     2.3298 C.3          1    LIG   0.0000
   6 C6          -1.2705     1.7519     3.1481 C.2          1    LIG   0.0000
   7 N7          -0.7780     0.5338     3.0022 N.2          1    LIG   0.0000
   8 C8          -1.2398    -0.5298     3.7351 C.ar         1    LIG   0.0000
   9 C9          -0.7122    -1.8071     3.5710 C.ar         1    LIG   0.0000
  10 C10         -1.1800    -2.8859     4.3138 C.ar         1    LIG   0.0000
  11 C11         -2.1958    -2.7007     5.2442 C.ar         1    LIG   0.0000
  12 C12         -2.7194    -1.4230     5.4054 C.ar         1    LIG   0.0000
  13 C13         -2.2569    -0.3364     4.6649 C.ar         1    LIG   0.0000
  14 C14         -2.7831     0.9764     4.8177 C.2          1    LIG   0.0000
  15 O15         -3.6757     1.2406     5.6089 O.2          1    LIG   0.0000
  16 N16         -2.2735     1.9901     4.0510 N.pl3        1    LIG   0.0000
  17 C17         -1.1234     2.3663    -0.0373 C.2          1    LIG   0.0000
  18 O18         -1.7581     2.4582    -1.0516 O.2          1    LIG   0.0000
  19 C19          0.0722     1.5470    -0.0021 C.2          1    LIG   0.0000
  20 N20          1.2569     1.9748    -0.0880 N.2          1    LIG   0.0000
  21 N21          2.1379     0.9582    -0.0375 N.pl3        1    LIG   0.0000
  22 C22          3.4902     1.0730     0.3071 C.ar         1    LIG   0.0000
  23 C23          4.2957    -0.0609     0.3207 C.ar         1    LIG   0.0000
  24 C24          5.6377     0.0623     0.6648 C.ar         1    LIG   0.0000
  25 C25          6.1614     1.3099     0.9903 C.ar         1    LIG   0.0000
  26 C26          5.3485     2.4386     0.9738 C.ar         1    LIG   0.0000
  27 C27          4.0049     2.3240     0.6314 C.ar         1    LIG   0.0000
  28 C28          1.4696    -0.2865    -0.4012 C.3          1    LIG   0.0000
  29 C29          1.4841    -0.5227    -1.9032 C.2          1    LIG   0.0000
  30 O30          0.9724    -1.5070    -2.3608 O.2          1    LIG   0.0000
  31 O31          2.0551     0.3484    -2.6977 O.3          1    LIG   0.0000
  32 C32          2.0130     0.0330    -4.0816 C.3          1    LIG   0.0000
  33 C33          2.7103     1.1280    -4.8723 C.3          1    LIG   0.0000
  34 C34          2.7182    -1.2921    -4.3209 C.3          1    LIG   0.0000
  35 C35          0.5656    -0.0746    -4.5331 C.3          1    LIG   0.0000
  36 C36          0.0964     0.0384     0.1413 C.3          1    LIG   0.0000
  37 H           -2.6379     2.9159     4.1512 H            1    LIG   0.0000
  38 H            1.8711    -1.0623     0.0857 H            1    LIG   0.0000
  39 H           -3.3979     5.5278    -0.0121 H            1    LIG   0.0000
  40 H           -1.7864     5.5314     0.2516 H            1    LIG   0.0000
  41 H           -2.4253     4.5501    -0.8866 H            1    LIG   0.0000
  42 H           -2.8889     4.2788     1.9504 H            1    LIG   0.0000
  43 H           -4.7616     3.5669     0.6634 H            1    LIG   0.0000
  44 H           -3.7890     2.5892    -0.2111 H            1    LIG   0.0000
  45 H           -4.0472     2.2804     1.3715 H            1    LIG   0.0000
  46 H           -0.8441     3.7664     2.8588 H            1    LIG   0.0000
  47 H            0.2123     2.7731     2.1078 H            1    LIG   0.0000
  48 H            0.0191    -1.9524     2.9046 H            1    LIG   0.0000
  49 H           -0.7855    -3.7947     4.1784 H            1    LIG   0.0000
  50 H           -2.5415    -3.4679     5.7845 H            1    LIG   0.0000
  51 H           -3.4501    -1.2792     6.0727 H            1    LIG   0.0000
  52 H            3.9142    -0.9549     0.0857 H            1    LIG   0.0000
  53 H            6.2265    -0.7459     0.6784 H            1    LIG   0.0000
  54 H            7.1266     1.3953     1.2373 H            1    LIG   0.0000
  55 H            5.7301     3.3328     1.2081 H            1    LIG   0.0000
  56 H            3.4158     3.1319     0.6185 H            1    LIG   0.0000
  57 H            2.6807     0.9059    -5.8468 H            1    LIG   0.0000
  58 H            2.2464     1.9998    -4.7148 H            1    LIG   0.0000
  59 H            3.6626     1.1987    -4.5753 H            1    LIG   0.0000
  60 H            2.6886    -1.5142    -5.2955 H            1    LIG   0.0000
  61 H            3.6704    -1.2214    -4.0239 H            1    LIG   0.0000
  62 H            2.2594    -2.0125    -3.8008 H            1    LIG   0.0000
  63 H            0.5360    -0.2967    -5.5076 H            1    LIG   0.0000
  64 H            0.1069    -0.7950    -4.0129 H            1    LIG   0.0000
  65 H            0.1017     0.7972    -4.3756 H            1    LIG   0.0000
  66 H           -0.6237    -0.3929    -0.4021 H            1    LIG   0.0000
  67 H            0.0047    -0.2403     1.0973 H            1    LIG   0.0000
@<TRIPOS>BOND
   1        1        2 1
   2        2        3 1
   3        2        4 1
   4        4        5 1
   5        5        6 1
   6        6        7 2
   7        7        8 1
   8        8        9 ar
   9        9       10 ar
  10       10       11 ar
  11       11       12 ar
  12       12       13 ar
  13       13        8 ar
  14       13       14 1
  15       14       15 2
  16       14       16 1
  17       16        6 1
  18        4       17 am
  19       17       18 2
  20       17       19 1
  21       19       20 2
  22       20       21 1
  23       21       22 1
  24       22       23 ar
  25       23       24 ar
  26       24       25 ar
  27       25       26 ar
  28       26       27 ar
  29       27       22 ar
  30       21       28 1
  31       28       29 1
  32       29       30 2
  33       29       31 1
  34       31       32 1
  35       32       33 1
  36       32       34 1
  37       32       35 1
  38       28       36 1
  39       36       19 1
  40       16       37 1
  41       28       38 1
  42        1       39 1
  43        1       40 1
  44        1       41 1
  45        2       42 1
  46        3       43 1
  47        3       44 1
  48        3       45 1
  49        5       46 1
  50        5       47 1
  51        9       48 1
  52       10       49 1
  53       11       50 1
  54       12       51 1
  55       23       52 1
  56       24       53 1
  57       25       54 1
  58       26       55 1
  59       27       56 1
  60       33       57 1
  61       33       58 1
  62       33       59 1
  63       34       60 1
  64       34       61 1
  65       34       62 1
  66       35       63 1
  67       35       64 1
  68       35       65 1
  69       36       66 1
  70       36       67 1

@<TRIPOS>MOLECULE

  67   70
SMALL
USER_CHARGES
@<TRIPOS>ATOM
   1 C1          -0.2649     4.3004     2.7499 C.3          1    LIG   0.0000
   2 C2          -0.7512     2.9229     2.3298 C.3          1    LIG   0.0000
   3 C3          -1.6286     2.3395     3.4254 C.3          1    LIG   0.0000
   4 N4          -1.5286     3.0355     1.0873 N.am         1    LIG   0.0000
   5 C5          -2.7409     3.8662     1.0516 C.3          1    LIG   0.0000
   6 C6          -2.3713     5.2847     0.6492 C.2          1    LIG   0.0000
   7 N7          -2.0516     6.1980     1.5501 N.2          1    LIG   0.0000
   8 C8          -1.7171     7.4808     1.1977 C.ar         1    LIG   0.0000
   9 C9          -1.3828     8.4323     2.1567 C.ar         1    LIG   0.0000
  10 C10         -1.0436     9.7331     1.8002 C.ar         1    LIG   0.0000
  11 C11         -1.0335    10.1066     0.4615 C.ar         1    LIG   0.0000
  12 C12         -1.3674     9.1528    -0.4932 C.ar         1    LIG   0.0000
  13 C13         -1.7090     7.8471    -0.1447 C.ar         1    LIG   0.0000
  14 C14         -2.0539     6.8603    -1.1096 C.2          1    LIG   0.0000
  15 O15         -2.0733     7.0902    -2.3093 O.2          1    LIG   0.0000
  16 N16         -2.3778     5.5996    -0.6844 N.pl3        1    LIG   0.0000
  17 C17         -1.1234     2.3663    -0.0373 C.2          1    LIG   0.0000
  18 O18         -1.7581     2.4582    -1.0516 O.2          1    LIG   0.0000
  19 C19          0.0722     1.5470    -0.0021 C.2          1    LIG   0.0000
  20 N20          1.2569     1.9748    -0.0880 N.2          1    LIG   0.0000
  21 N21          2.1379     0.9582    -0.0375 N.pl3        1    LIG   0.0000
  22 C22          3.4902     1.0730     0.3071 C.ar         1    LIG   0.0000
  23 C23          4.2957    -0.0609     0.3207 C.ar         1    LIG   0.0000
  24 C24          5.6377     0.0623     0.6648 C.ar         1    LIG   0.0000
  25 C25          6.1614     1.3099     0.9903 C.ar         1    LIG   0.0000
  26 C26          5.3485     2.4386     0.9738 C.ar         1    LIG   0.0000
  27 C27          4.0049     2.3240     0.6314 C.ar         1    LIG   0.0000
  28 C28          1.4696    -0.2865    -0.4012 C.3          1    LIG   0.0000
  29 C29          1.4841    -0.5227    -1.9032 C.2          1    LIG   0.0000
  30 O30          2.0071     0.2752    -2.6310 O.2          1    LIG   0.0000
  31 O31          0.9255    -1.5972    -2.4027 O.3          1    LIG   0.0000
  32 C32          0.9944    -1.7216    -3.8156 C.3          1    LIG   0.0000
  33 C33          0.3088    -3.0084    -4.2450 C.3          1    LIG   0.0000
  34 C34          0.2978    -0.5359    -4.4631 C.3          1    LIG   0.0000
  35 C35          2.4504    -1.7535    -4.2510 C.3          1    LIG   0.0000
  36 C36          0.0964     0.0384     0.1413 C.3          1    LIG   0.0000
  37 H           -2.6223     4.8998    -1.3556 H            1    LIG   0.0000
  38 H            1.8711    -1.0623     0.0857 H            1    LIG   0.0000
  39 H            0.2640     4.2237     3.5951 H            1    LIG   0.0000
  40 H            0.3124     4.6842     2.0291 H            1    LIG   0.0000
  41 H           -1.0510     4.8994     2.9017 H            1    LIG   0.0000
  42 H            0.0350     2.3238     2.1780 H            1    LIG   0.0000
  43 H           -1.0997     2.2629     4.2706 H            1    LIG   0.0000
  44 H           -2.4147     2.9385     3.5772 H            1    LIG   0.0000
  45 H           -1.9485     1.4332     3.1490 H            1    LIG   0.0000
  46 H           -3.1648     3.8764     1.9572 H            1    LIG   0.0000
  47 H           -3.3846     3.4881     0.3863 H            1    LIG   0.0000
  48 H           -1.3866     8.1751     3.1231 H            1    LIG   0.0000
  49 H           -0.8071    10.3998     2.5071 H            1    LIG   0.0000
  50 H           -0.7918    11.0386     0.1916 H            1    LIG   0.0000
  51 H           -1.3624     9.4112    -1.4592 H            1    LIG   0.0000
  52 H            3.9142    -0.9549     0.0857 H            1    LIG   0.0000
  53 H            6.2265    -0.7459     0.6784 H            1    LIG   0.0000
  54 H            7.1266     1.3953     1.2373 H            1    LIG   0.0000
  55 H            5.7301     3.3328     1.2081 H            1    LIG   0.0000
  56 H            3.4158     3.1319     0.6185 H            1    LIG   0.0000
  57 H            0.3574    -3.0960    -5.2400 H            1    LIG   0.0000
  58 H            0.7671    -3.7885    -3.8190 H            1    LIG   0.0000
  59 H           -0.6490    -2.9874    -3.9585 H            1    LIG   0.0000
  60 H            0.3463    -0.6234    -5.4581 H            1    LIG   0.0000
  61 H           -0.6601    -0.5149    -4.1766 H            1    LIG   0.0000
  62 H            0.7488     0.3107    -4.1806 H            1    LIG   0.0000
  63 H            2.4989    -1.8410    -5.2460 H            1    LIG   0.0000
  64 H            2.9014    -0.9068    -3.9685 H            1    LIG   0.0000
  65 H            2.9087    -2.5335    -3.8250 H            1    LIG   0.0000
  66 H           -0.6237    -0.3929    -0.4021 H            1    LIG   0.0000
  67 H            0.0047    -0.2403     1.0973 H            1    LIG   0.0000
@<TRIPOS>BOND
   1        1        2 1
   2        2        3 1
   3        2        4 1
   4        4        5 1
   5        5        6 1
   6        6        7 2
   7        7        8 1
   8        8        9 ar
   9        9       10 ar
  10       10       11 ar
  11       11       12 ar
  12       12       13 ar
  13       13        8 ar
  14       13       14 1
  15       14       15 2
  16       14       16 1
  17       16        6 1
  18        4       17 am
  19       17       18 2
  20       17       19 1
  21       19       20 2
  22       20       21 1
  23       21       22 1
  24       22       23 ar
  25       23       24 ar
  26       24       25 ar
  27       25       26 ar
  28       26       27 ar
  29       27       22 ar
  30       21       28 1
  31       28       29 1
  32       29       30 2
  33       29       31 1
  34       31       32 1
  35       32       33 1
  36       32       34 1
  37       32       35 1
  38       28       36 1
  39       36       19 1
  40       16       37 1
  41       28       38 1
  42        1       39 1
  43        1       40 1
  44        1       41 1
  45        2       42 1
  46        3       43 1
  47        3       44 1
  48        3       45 1
  49        5       46 1
  50        5       47 1
  51        9       48 1
  52       10       49 1
  53       11       50 1
  54       12       51 1
  55       23       52 1
  56       24       53 1
  57       25       54 1
  58       26       55 1
  59       27       56 1
  60       33       57 1
  61       33       58 1
  62       33       59 1
  63       34       60 1
  64       34       61 1
  65       34       62 1
  66       35       63 1
  67       35       64 1
  68       35       65 1
  69       36       66 1
  70       36       67 1

@<TRIPOS>MOLECULE

  67   70
SMALL
USER_CHARGES
@<TRIPOS>ATOM
   1 C1          -0.2649     4.3004     2.7499 C.3          1    LIG   0.0000
   2 C2          -0.7512     2.9229     2.3298 C.3          1    LIG   0.0000
   3 C3          -1.6286     2.3395     3.4254 C.3          1    LIG   0.0000
   4 N4          -1.5286     3.0355     1.0873 N.am         1    LIG   0.0000
   5 C5          -2.7409     3.8662     1.0516 C.3          1    LIG   0.0000
   6 C6          -2.3713     5.2847     0.6492 C.2          1    LIG   0.0000
   7 N7          -2.0516     6.1980     1.5501 N.2          1    LIG   0.0000
   8 C8          -1.7171     7.4808     1.1977 C.ar         1    LIG   0.0000
   9 C9          -1.3828     8.4323     2.1567 C.ar         1    LIG   0.0000
  10 C10         -1.0436     9.7331     1.8002 C.ar         1    LIG   0.0000
  11 C11         -1.0335    10.1066     0.4615 C.ar         1    LIG   0.0000
  12 C12         -1.3674     9.1528    -0.4932 C.ar         1    LIG   0.0000
  13 C13         -1.7090     7.8471    -0.1447 C.ar         1    LIG   0.0000
  14 C14         -2.0539     6.8603    -1.1096 C.2          1    LIG   0.0000
  15 O15         -2.0733     7.0902    -2.3093 O.2          1    LIG   0.0000
  16 N16         -2.3778     5.5996    -0.6844 N.pl3        1    LIG   0.0000
  17 C17         -1.1234     2.3663    -0.0373 C.2          1    LIG   0.0000
  18 O18         -1.7581     2.4582    -1.0516 O.2          1    LIG   0.0000
  19 C19          0.0722     1.5470    -0.0021 C.2          1    LIG   0.0000
  20 N20          1.2569     1.9748    -0.0880 N.2          1    LIG   0.0000
  21 N21          2.1379     0.9582    -0.0375 N.pl3        1    LIG   0.0000
  22 C22          3.4902     1.0730     0.3071 C.ar         1    LIG   0.0000
  23 C23          4.2957    -0.0609     0.3207 C.ar         1    LIG   0.0000
  24 C24          5.6377     0.0623     0.6648 C.ar         1    LIG   0.0000
  25 C25          6.1614     1.3099     0.9903 C.ar         1    LIG   0.0000
  26 C26          5.3485     2.4386     0.9738 C.ar         1    LIG   0.0000
  27 C27          4.0049     2.3240     0.6314 C.ar         1    LIG   0.0000
  28 C28          1.4696    -0.2865    -0.4012 C.3          1    LIG   0.0000
  29 C29          1.4841    -0.5227    -1.9032 C.2          1    LIG   0.0000
  30 O30          0.9724    -1.5070    -2.3608 O.2          1    LIG   0.0000
  31 O31          2.0551     0.3484    -2.6977 O.3          1    LIG   0.0000
  32 C32          2.0130     0.0330    -4.0816 C.3          1    LIG   0.0000
  33 C33          2.7103     1.1280    -4.8723 C.3          1    LIG   0.0000
  34 C34          2.7182    -1.2921    -4.3209 C.3          1    LIG   0.0000
  35 C35          0.5656    -0.0746    -4.5331 C.3          1    LIG   0.0000
  36 C36          0.0964     0.0384     0.1413 C.3          1    LIG   0.0000
  37 H           -2.6223     4.8998    -1.3556 H            1    LIG   0.0000
  38 H            1.8711    -1.0623     0.0857 H            1    LIG   0.0000
  39 H            0.2640     4.2237     3.5951 H            1    LIG   0.0000
  40 H            0.3124     4.6842     2.0291 H            1    LIG   0.0000
  41 H           -1.0510     4.8994     2.9017 H            1    LIG   0.0000
  42 H            0.0350     2.3238     2.1780 H            1    LIG   0.0000
  43 H           -1.0997     2.2629     4.2706 H            1    LIG   0.0000
  44 H           -2.4147     2.9385     3.5772 H            1    LIG   0.0000
  45 H           -1.9485     1.4332     3.1490 H            1    LIG   0.0000
  46 H           -3.1648     3.8764     1.9572 H            1    LIG   0.0000
  47 H           -3.3846     3.4881     0.3863 H            1    LIG   0.0000
  48 H           -1.3866     8.1751     3.1231 H            1    LIG   0.0000
  49 H           -0.8071    10.3998     2.5071 H            1    LIG   0.0000
  50 H           -0.7918    11.0386     0.1916 H            1    LIG   0.0000
  51 H           -1.3624     9.4112    -1.4592 H            1    LIG   0.0000
  52 H            3.9142    -0.9549     0.0857 H            1    LIG   0.0000
  53 H            6.2265    -0.7459     0.6784 H            1    LIG   0.0000
  54 H            7.1266     1.3953     1.2373 H            1    LIG   0.0000
  55 H            5.7301     3.3328     1.2081 H            1    LIG   0.0000
  56 H            3.4158     3.1319     0.6185 H            1    LIG   0.0000
  57 H            2.6807     0.9059    -5.8468 H            1    LIG   0.0000
  58 H            2.2464     1.9998    -4.7148 H            1    LIG   0.0000
  59 H            3.6626     1.1987    -4.5753 H            1    LIG   0.0000
  60 H            2.6886    -1.5142    -5.2955 H            1    LIG   0.0000
  61 H            3.6704    -1.2214    -4.0239 H            1    LIG   0.0000
  62 H            2.2594    -2.0125    -3.8008 H            1    LIG   0.0000
  63 H            0.5360    -0.2967    -5.5076 H            1    LIG   0.0000
  64 H            0.1069    -0.7950    -4.0129 H            1    LIG   0.0000
  65 H            0.1017     0.7972    -4.3756 H            1    LIG   0.0000
  66 H           -0.6237    -0.3929    -0.4021 H            1    LIG   0.0000
  67 H            0.0047    -0.2403     1.0973 H            1    LIG   0.0000
@<TRIPOS>BOND
   1        1        2 1
   2        2        3 1
   3        2        4 1
   4        4        5 1
   5        5        6 1
   6        6        7 2
   7        7        8 1
   8        8        9 ar
   9        9       10 ar
  10       10       11 ar
  11       11       12 ar
  12       12       13 ar
  13       13        8 ar
  14       13       14 1
  15       14       15 2
  16       14       16 1
  17       16        6 1
  18        4       17 am
  19       17       18 2
  20       17       19 1
  21       19       20 2
  22       20       21 1
  23       21       22 1
  24       22       23 ar
  25       23       24 ar
  26       24       25 ar
  27       25       26 ar
  28       26       27 ar
  29       27       22 ar
  30       21       28 1
  31       28       29 1
  32       29       30 2
  33       29       31 1
  34       31       32 1
  35       32       33 1
  36       32       34 1
  37       32       35 1
  38       28       36 1
  39       36       19 1
  40       16       37 1
  41       28       38 1
  42        1       39 1
  43        1       40 1
  44        1       41 1
  45        2       42 1
  46        3       43 1
  47        3       44 1
  48        3       45 1
  49        5       46 1
  50        5       47 1
  51        9       48 1
  52       10       49 1
  53       11       50 1
  54       12       51 1
  55       23       52 1
  56       24       53 1
  57       25       54 1
  58       26       55 1
  59       27       56 1
  60       33       57 1
  61       33       58 1
  62       33       59 1
  63       34       60 1
  64       34       61 1
  65       34       62 1
  66       35       63 1
  67       35       64 1
  68       35       65 1
  69       36       66 1
  70       36       67 1

@<TRIPOS>MOLECULE

  67   70
SMALL
USER_CHARGES
@<TRIPOS>ATOM
   1 C1          -0.2649     4.3004     2.7499 C.3          1    LIG   0.0000
   2 C2          -0.7512     2.9229     2.3298 C.3          1    LIG   0.0000
   3 C3          -1.6286     2.3395     3.4254 C.3          1    LIG   0.0000
   4 N4          -1.5286     3.0355     1.0873 N.am         1    LIG   0.0000
   5 C5          -2.7409     3.8662     1.0516 C.3          1    LIG   0.0000
   6 C6          -3.9460     3.0204     1.4293 C.2          1    LIG   0.0000
   7 N7          -4.3427     2.9036     2.6850 N.2          1    LIG   0.0000
   8 C8          -5.4284     2.1425     3.0365 C.ar         1    LIG   0.0000
   9 C9          -5.8348     2.0281     4.3627 C.ar         1    LIG   0.0000
  10 C10         -6.9355     1.2567     4.7199 C.ar         1    LIG   0.0000
  11 C11         -7.6559     0.5794     3.7431 C.ar         1    LIG   0.0000
  12 C12         -7.2469     0.6970     2.4196 C.ar         1    LIG   0.0000
  13 C13         -6.1448     1.4675     2.0529 C.ar         1    LIG   0.0000
  14 C14         -5.7134     1.5969     0.7034 C.2          1    LIG   0.0000
  15 O15         -6.2803     1.0420    -0.2256 O.2          1    LIG   0.0000
  16 N16         -4.6199     2.3734     0.4268 N.pl3        1    LIG   0.0000
  17 C17         -1.1234     2.3663    -0.0373 C.2          1    LIG   0.0000
  18 O18         -1.7581     2.4582    -1.0516 O.2          1    LIG   0.0000
  19 C19          0.0722     1.5470    -0.0021 C.2          1    LIG   0.0000
  20 N20          1.2569     1.9748    -0.0880 N.2          1    LIG   0.0000
  21 N21          2.1379     0.9582    -0.0375 N.pl3        1    LIG   0.0000
  22 C22          3.4902     1.0730     0.3071 C.ar         1    LIG   0.0000
  23 C23          4.2957    -0.0609     0.3207 C.ar         1    LIG   0.0000
  24 C24          5.6377     0.0623     0.6648 C.ar         1    LIG   0.0000
  25 C25          6.1614     1.3099     0.9903 C.ar         1    LIG   0.0000
  26 C26          5.3485     2.4386     0.9738 C.ar         1    LIG   0.0000
  27 C27          4.0049     2.3240     0.6314 C.ar         1    LIG   0.0000
  28 C28          1.4696    -0.2865    -0.4012 C.3          1    LIG   0.0000
  29 C29          1.4841    -0.5227    -1.9032 C.2          1    LIG   0.0000
  30 O30          2.0071     0.2752    -2.6310 O.2          1    LIG   0.0000
  31 O31          0.9255    -1.5972    -2.4027 O.3          1    LIG   0.0000
  32 C32          0.9944    -1.7216    -3.8156 C.3          1    LIG   0.0000
  33 C33          0.3088    -3.0084    -4.2450 C.3          1    LIG   0.0000
  34 C34          0.2978    -0.5359    -4.4631 C.3          1    LIG   0.0000
  35 C35          2.4504    -1.7535    -4.2510 C.3          1    LIG   0.0000
  36 C36          0.0964     0.0384     0.1413 C.3          1    LIG   0.0000
  37 H           -4.3092     2.4695    -0.5188 H            1    LIG   0.0000
  38 H            1.8711    -1.0623     0.0857 H            1    LIG   0.0000
  39 H            0.2640     4.2237     3.5951 H            1    LIG   0.0000
  40 H            0.3124     4.6842     2.0291 H            1    LIG   0.0000
  41 H           -1.0510     4.8994     2.9017 H            1    LIG   0.0000
  42 H            0.0350     2.3238     2.1780 H            1    LIG   0.0000
  43 H           -1.0997     2.2629     4.2706 H            1    LIG   0.0000
  44 H           -2.4147     2.9385     3.5772 H            1    LIG   0.0000
  45 H           -1.9485     1.4332     3.1490 H            1    LIG   0.0000
  46 H           -2.8666     4.2329     0.1298 H            1    LIG   0.0000
  47 H           -2.6469     4.6212     1.7006 H            1    LIG   0.0000
  48 H           -5.3243     2.5110     5.0741 H            1    LIG   0.0000
  49 H           -7.2087     1.1894     5.6795 H            1    LIG   0.0000
  50 H           -8.4490     0.0210     3.9864 H            1    LIG   0.0000
  51 H           -7.7589     0.2141     1.7092 H            1    LIG   0.0000
  52 H            3.9142    -0.9549     0.0857 H            1    LIG   0.0000
  53 H            6.2265    -0.7459     0.6784 H            1    LIG   0.0000
  54 H            7.1266     1.3953     1.2373 H            1    LIG   0.0000
  55 H            5.7301     3.3328     1.2081 H            1    LIG   0.0000
  56 H            3.4158     3.1319     0.6185 H            1    LIG   0.0000
  57 H            0.3574    -3.0960    -5.2400 H            1    LIG   0.0000
  58 H            0.7671    -3.7885    -3.8190 H            1    LIG   0.0000
  59 H           -0.6490    -2.9874    -3.9585 H            1    LIG   0.0000
  60 H            0.3463    -0.6234    -5.4581 H            1    LIG   0.0000
  61 H           -0.6601    -0.5149    -4.1766 H            1    LIG   0.0000
  62 H            0.7488     0.3107    -4.1806 H            1    LIG   0.0000
  63 H            2.4989    -1.8410    -5.2460 H            1    LIG   0.0000
  64 H            2.9014    -0.9068    -3.9685 H            1    LIG   0.0000
  65 H            2.9087    -2.5335    -3.8250 H            1    LIG   0.0000
  66 H           -0.6237    -0.3929    -0.4021 H            1    LIG   0.0000
  67 H            0.0047    -0.2403     1.0973 H            1    LIG   0.0000
@<TRIPOS>BOND
   1        1        2 1
   2        2        3 1
   3        2        4 1
   4        4        5 1
   5        5        6 1
   6        6        7 2
   7        7        8 1
   8        8        9 ar
   9        9       10 ar
  10       10       11 ar
  11       11       12 ar
  12       12       13 ar
  13       13        8 ar
  14       13       14 1
  15       14       15 2
  16       14       16 1
  17       16        6 1
  18        4       17 am
  19       17       18 2
  20       17       19 1
  21       19       20 2
  22       20       21 1
  23       21       22 1
  24       22       23 ar
  25       23       24 ar
  26       24       25 ar
  27       25       26 ar
  28       26       27 ar
  29       27       22 ar
  30       21       28 1
  31       28       29 1
  32       29       30 2
  33       29       31 1
  34       31       32 1
  35       32       33 1
  36       32       34 1
  37       32       35 1
  38       28       36 1
  39       36       19 1
  40       16       37 1
  41       28       38 1
  42        1       39 1
  43        1       40 1
  44        1       41 1
  45        2       42 1
  46        3       43 1
  47        3       44 1
  48        3       45 1
  49        5       46 1
  50        5       47 1
  51        9       48 1
  52       10       49 1
  53       11       50 1
  54       12       51 1
  55       23       52 1
  56       24       53 1
  57       25       54 1
  58       26       55 1
  59       27       56 1
  60       33       57 1
  61       33       58 1
  62       33       59 1
  63       34       60 1
  64       34       61 1
  65       34       62 1
  66       35       63 1
  67       35       64 1
  68       35       65 1
  69       36       66 1
  70       36       67 1

@<TRIPOS>MOLECULE

  67   70
SMALL
USER_CHARGES
@<TRIPOS>ATOM
   1 C1          -0.2649     4.3004     2.7499 C.3          1    LIG   0.0000
   2 C2          -0.7512     2.9229     2.3298 C.3          1    LIG   0.0000
   3 C3          -1.6286     2.3395     3.4254 C.3          1    LIG   0.0000
   4 N4          -1.5286     3.0355     1.0873 N.am         1    LIG   0.0000
   5 C5          -2.7409     3.8662     1.0516 C.3          1    LIG   0.0000
   6 C6          -3.9460     3.0204     1.4293 C.2          1    LIG   0.0000
   7 N7          -4.3427     2.9036     2.6850 N.2          1    LIG   0.0000
   8 C8          -5.4284     2.1425     3.0365 C.ar         1    LIG   0.0000
   9 C9          -5.8348     2.0281     4.3627 C.ar         1    LIG   0.0000
  10 C10         -6.9355     1.2567     4.7199 C.ar         1    LIG   0.0000
  11 C11         -7.6559     0.5794     3.7431 C.ar         1    LIG   0.0000
  12 C12         -7.2469     0.6970     2.4196 C.ar         1    LIG   0.0000
  13 C13         -6.1448     1.4675     2.0529 C.ar         1    LIG   0.0000
  14 C14         -5.7134     1.5969     0.7034 C.2          1    LIG   0.0000
  15 O15         -6.2803     1.0420    -0.2256 O.2          1    LIG   0.0000
  16 N16         -4.6199     2.3734     0.4268 N.pl3        1    LIG   0.0000
  17 C17         -1.1234     2.3663    -0.0373 C.2          1    LIG   0.0000
  18 O18         -1.7581     2.4582    -1.0516 O.2          1    LIG   0.0000
  19 C19          0.0722     1.5470    -0.0021 C.2          1    LIG   0.0000
  20 N20          1.2569     1.9748    -0.0880 N.2          1    LIG   0.0000
  21 N21          2.1379     0.9582    -0.0375 N.pl3        1    LIG   0.0000
  22 C22          3.4902     1.0730     0.3071 C.ar         1    LIG   0.0000
  23 C23          4.2957    -0.0609     0.3207 C.ar         1    LIG   0.0000
  24 C24          5.6377     0.0623     0.6648 C.ar         1    LIG   0.0000
  25 C25          6.1614     1.3099     0.9903 C.ar         1    LIG   0.0000
  26 C26          5.3485     2.4386     0.9738 C.ar         1    LIG   0.0000
  27 C27          4.0049     2.3240     0.6314 C.ar         1    LIG   0.0000
  28 C28          1.4696    -0.2865    -0.4012 C.3          1    LIG   0.0000
  29 C29          1.4841    -0.5227    -1.9032 C.2          1    LIG   0.0000
  30 O30          0.9724    -1.5070    -2.3608 O.2          1    LIG   0.0000
  31 O31          2.0551     0.3484    -2.6977 O.3          1    LIG   0.0000
  32 C32          2.0130     0.0330    -4.0816 C.3          1    LIG   0.0000
  33 C33          2.7103     1.1280    -4.8723 C.3          1    LIG   0.0000
  34 C34          2.7182    -1.2921    -4.3209 C.3          1    LIG   0.0000
  35 C35          0.5656    -0.0746    -4.5331 C.3          1    LIG   0.0000
  36 C36          0.0964     0.0384     0.1413 C.3          1    LIG   0.0000
  37 H           -4.3092     2.4695    -0.5188 H            1    LIG   0.0000
  38 H            1.8711    -1.0623     0.0857 H            1    LIG   0.0000
  39 H            0.2640     4.2237     3.5951 H            1    LIG   0.0000
  40 H            0.3124     4.6842     2.0291 H            1    LIG   0.0000
  41 H           -1.0510     4.8994     2.9017 H            1    LIG   0.0000
  42 H            0.0350     2.3238     2.1780 H            1    LIG   0.0000
  43 H           -1.0997     2.2629     4.2706 H            1    LIG   0.0000
  44 H           -2.4147     2.9385     3.5772 H            1    LIG   0.0000
  45 H           -1.9485     1.4332     3.1490 H            1    LIG   0.0000
  46 H           -2.8666     4.2329     0.1298 H            1    LIG   0.0000
  47 H           -2.6469     4.6212     1.7006 H            1    LIG   0.0000
  48 H           -5.3243     2.5110     5.0741 H            1    LIG   0.0000
  49 H           -7.2087     1.1894     5.6795 H            1    LIG   0.0000
  50 H           -8.4490     0.0210     3.9864 H            1    LIG   0.0000
  51 H           -7.7589     0.2141     1.7092 H            1    LIG   0.0000
  52 H            3.9142    -0.9549     0.0857 H            1    LIG   0.0000
  53 H            6.2265    -0.7459     0.6784 H            1    LIG   0.0000
  54 H            7.1266     1.3953     1.2373 H            1    LIG   0.0000
  55 H            5.7301     3.3328     1.2081 H            1    LIG   0.0000
  56 H            3.4158     3.1319     0.6185 H            1    LIG   0.0000
  57 H            2.6807     0.9059    -5.8468 H            1    LIG   0.0000
  58 H            2.2464     1.9998    -4.7148 H            1    LIG   0.0000
  59 H            3.6626     1.1987    -4.5753 H            1    LIG   0.0000
  60 H            2.6886    -1.5142    -5.2955 H            1    LIG   0.0000
  61 H            3.6704    -1.2214    -4.0239 H            1    LIG   0.0000
  62 H            2.2594    -2.0125    -3.8008 H            1    LIG   0.0000
  63 H            0.5360    -0.2967    -5.5076 H            1    LIG   0.0000
  64 H            0.1069    -0.7950    -4.0129 H            1    LIG   0.0000
  65 H            0.1017     0.7972    -4.3756 H            1    LIG   0.0000
  66 H           -0.6237    -0.3929    -0.4021 H            1    LIG   0.0000
  67 H            0.0047    -0.2403     1.0973 H            1    LIG   0.0000
@<TRIPOS>BOND
   1        1        2 1
   2        2        3 1
   3        2        4 1
   4        4        5 1
   5        5        6 1
   6        6        7 2
   7        7        8 1
   8        8        9 ar
   9        9       10 ar
  10       10       11 ar
  11       11       12 ar
  12       12       13 ar
  13       13        8 ar
  14       13       14 1
  15       14       15 2
  16       14       16 1
  17       16        6 1
  18        4       17 am
  19       17       18 2
  20       17       19 1
  21       19       20 2
  22       20       21 1
  23       21       22 1
  24       22       23 ar
  25       23       24 ar
  26       24       25 ar
  27       25       26 ar
  28       26       27 ar
  29       27       22 ar
  30       21       28 1
  31       28       29 1
  32       29       30 2
  33       29       31 1
  34       31       32 1
  35       32       33 1
  36       32       34 1
  37       32       35 1
  38       28       36 1
  39       36       19 1
  40       16       37 1
  41       28       38 1
  42        1       39 1
  43        1       40 1
  44        1       41 1
  45        2       42 1
  46        3       43 1
  47        3       44 1
  48        3       45 1
  49        5       46 1
  50        5       47 1
  51        9       48 1
  52       10       49 1
  53       11       50 1
  54       12       51 1
  55       23       52 1
  56       24       53 1
  57       25       54 1
  58       26       55 1
  59       27       56 1
  60       33       57 1
  61       33       58 1
  62       33       59 1
  63       34       60 1
  64       34       61 1
  65       34       62 1
  66       35       63 1
  67       35       64 1
  68       35       65 1
  69       36       66 1
  70       36       67 1

