@<TRIPOS>MOLECULE
*****
 67 70 0 0 0
SMALL
USER_CHARGES

@<TRIPOS>ATOM
      1 C1         -2.5036    4.9817   -1.9084 C.3     1  LIG1        0.0000
      2 C2         -2.8276    3.6396   -1.2726 C.3     1  LIG1        0.0000
      3 C3         -3.8993    2.9372   -2.0903 C.3     1  LIG1        0.0000
      4 N4         -1.6154    2.8089   -1.2369 N.am    1  LIG1        0.0000
      5 C5         -0.9311    2.4530   -2.4883 C.3     1  LIG1        0.0000
      6 C6          0.1106    3.5108   -2.8146 C.2     1  LIG1        0.0000
      7 N7         -0.1855    4.5698   -3.5485 N.2     1  LIG1        0.0000
      8 C8          0.7471    5.5297   -3.8491 C.3     1  LIG1        0.0000
      9 C9          0.4215    6.6396   -4.6232 C.3     1  LIG1        0.0000
     10 C10         1.3665    7.6133   -4.9284 C.3     1  LIG1        0.0000
     11 C11         2.6684    7.4899   -4.4577 C.3     1  LIG1        0.0000
     12 C12         2.9891    6.3801   -3.6843 C.3     1  LIG1        0.0000
     13 C13         2.0484    5.3994   -3.3740 C.3     1  LIG1        0.0000
     14 C14         2.3614    4.2578   -2.5848 C.2     1  LIG1        0.0000
     15 O15         3.4758    4.0601   -2.1249 O.2     1  LIG1        0.0000
     16 N16         1.3792    3.3395   -2.3256 N.am    1  LIG1        0.0000
     17 C17        -1.1234    2.3663   -0.0373 C.2     1  LIG1        0.0000
     18 O18        -1.6820    2.6568    0.9842 O.2     1  LIG1        0.0000
     19 C19         0.0722    1.5470   -0.0021 C.2     1  LIG1        0.0000
     20 N20         1.2569    1.9748   -0.0880 N.2     1  LIG1        0.0000
     21 N21         2.1379    0.9582   -0.0375 N.pl3   1  LIG1        0.0000
     22 C22         3.4902    1.0730    0.3071 C.3     1  LIG1        0.0000
     23 C23         4.2957   -0.0609    0.3207 C.3     1  LIG1        0.0000
     24 C24         5.6377    0.0623    0.6648 C.3     1  LIG1        0.0000
     25 C25         6.1614    1.3099    0.9903 C.3     1  LIG1        0.0000
     26 C26         5.3485    2.4386    0.9738 C.3     1  LIG1        0.0000
     27 C27         4.0049    2.3240    0.6314 C.3     1  LIG1        0.0000
     28 C28         1.4696   -0.2865   -0.4012 C.3     1  LIG1        0.0000
     29 C29         1.4841   -0.5227   -1.9032 C.2     1  LIG1        0.0000
     30 O30         2.0071    0.2752   -2.6310 O.2     1  LIG1        0.0000
     31 O31         0.9255   -1.5972   -2.4027 O.3     1  LIG1        0.0000
     32 C32         0.9944   -1.7216   -3.8156 C.3     1  LIG1        0.0000
     33 C33         0.3088   -3.0084   -4.2450 C.3     1  LIG1        0.0000
     34 C34         0.2978   -0.5359   -4.4631 C.3     1  LIG1        0.0000
     35 C35         2.4504   -1.7535   -4.2510 C.3     1  LIG1        0.0000
     36 C36         0.0964    0.0384    0.1413 C.3     1  LIG1        0.0000
     37 H           1.5904    2.5337   -1.7723 H       1  LIG1        0.0000
     38 H           1.8711   -1.0623    0.0857 H       1  LIG1        0.0000
     39 H          -3.3282    5.5468   -1.9328 H       1  LIG1        0.0000
     40 H          -1.7985    5.4438   -1.3705 H       1  LIG1        0.0000
     41 H          -2.1708    4.8374   -2.8403 H       1  LIG1        0.0000
     42 H          -3.1604    3.7839   -0.3408 H       1  LIG1        0.0000
     43 H          -4.7239    3.5023   -2.1146 H       1  LIG1        0.0000
     44 H          -3.5665    2.7929   -3.0222 H       1  LIG1        0.0000
     45 H          -4.1125    2.0542   -1.6720 H       1  LIG1        0.0000
     46 H          -1.5990    2.4027   -3.2308 H       1  LIG1        0.0000
     47 H          -0.4829    1.5653   -2.3823 H       1  LIG1        0.0000
     48 H          -0.5121    6.7391   -4.9674 H       1  LIG1        0.0000
     49 H           1.1093    8.4021   -5.4866 H       1  LIG1        0.0000
     50 H           3.3577    8.1826   -4.6701 H       1  LIG1        0.0000
     51 H           3.9229    6.2824   -3.3402 H       1  LIG1        0.0000
     52 H           3.9142   -0.9549    0.0857 H       1  LIG1        0.0000
     53 H           6.2265   -0.7459    0.6784 H       1  LIG1        0.0000
     54 H           7.1266    1.3953    1.2373 H       1  LIG1        0.0000
     55 H           5.7301    3.3328    1.2081 H       1  LIG1        0.0000
     56 H           3.4158    3.1319    0.6185 H       1  LIG1        0.0000
     57 H           0.3574   -3.0960   -5.2400 H       1  LIG1        0.0000
     58 H           0.7671   -3.7885   -3.8190 H       1  LIG1        0.0000
     59 H          -0.6490   -2.9874   -3.9585 H       1  LIG1        0.0000
     60 H           0.3463   -0.6234   -5.4581 H       1  LIG1        0.0000
     61 H          -0.6601   -0.5149   -4.1766 H       1  LIG1        0.0000
     62 H           0.7488    0.3107   -4.1806 H       1  LIG1        0.0000
     63 H           2.4989   -1.8410   -5.2460 H       1  LIG1        0.0000
     64 H           2.9014   -0.9068   -3.9685 H       1  LIG1        0.0000
     65 H           2.9087   -2.5335   -3.8250 H       1  LIG1        0.0000
     66 H          -0.6237   -0.3929   -0.4021 H       1  LIG1        0.0000
     67 H           0.0047   -0.2403    1.0973 H       1  LIG1        0.0000
@<TRIPOS>BOND
     1     1     2    1
     2     2     3    1
     3     2     4    1
     4     4     5    1
     5     5     6    1
     6     6     7    2
     7     7     8    1
     8     8     9   ar
     9     9    10   ar
    10    10    11   ar
    11    11    12   ar
    12    12    13   ar
    13    13     8   ar
    14    13    14    1
    15    14    15    2
    16    14    16   am
    17    16     6    1
    18     4    17   am
    19    17    18    2
    20    17    19    1
    21    19    20    2
    22    20    21    1
    23    21    22    1
    24    22    23   ar
    25    23    24   ar
    26    24    25   ar
    27    25    26   ar
    28    26    27   ar
    29    27    22   ar
    30    21    28    1
    31    28    29    1
    32    29    30    2
    33    29    31    1
    34    31    32    1
    35    32    33    1
    36    32    34    1
    37    32    35    1
    38    28    36    1
    39    36    19    1
    40    16    37    1
    41    28    38    1
    42     1    39    1
    43     1    40    1
    44     1    41    1
    45     2    42    1
    46     3    43    1
    47     3    44    1
    48     3    45    1
    49     5    46    1
    50     5    47    1
    51     9    48    1
    52    10    49    1
    53    11    50    1
    54    12    51    1
    55    23    52    1
    56    24    53    1
    57    25    54    1
    58    26    55    1
    59    27    56    1
    60    33    57    1
    61    33    58    1
    62    33    59    1
    63    34    60    1
    64    34    61    1
    65    34    62    1
    66    35    63    1
    67    35    64    1
    68    35    65    1
    69    36    66    1
    70    36    67    1
