@<TRIPOS>MOLECULE
*****
 67 70 0 0 0
SMALL
USER_CHARGES

@<TRIPOS>ATOM
      1 C1         -2.5733    4.9626    0.0122 C.3     1  LIG1        0.0000
      2 C2         -2.7409    3.8662    1.0516 C.3     1  LIG1        0.0000
      3 C3         -3.9370    3.0017    0.6877 C.3     1  LIG1        0.0000
      4 N4         -1.5286    3.0355    1.0873 N.am    1  LIG1        0.0000
      5 C5         -0.7512    2.9229    2.3298 C.3     1  LIG1        0.0000
      6 C6         -1.2705    1.7519    3.1481 C.2     1  LIG1        0.0000
      7 N7         -0.7780    0.5338    3.0022 N.2     1  LIG1        0.0000
      8 C8         -1.2398   -0.5298    3.7351 C.3     1  LIG1        0.0000
      9 C9         -0.7122   -1.8071    3.5710 C.3     1  LIG1        0.0000
     10 C10        -1.1800   -2.8859    4.3138 C.3     1  LIG1        0.0000
     11 C11        -2.1958   -2.7007    5.2442 C.3     1  LIG1        0.0000
     12 C12        -2.7194   -1.4230    5.4054 C.3     1  LIG1        0.0000
     13 C13        -2.2569   -0.3364    4.6649 C.3     1  LIG1        0.0000
     14 C14        -2.7831    0.9764    4.8177 C.2     1  LIG1        0.0000
     15 O15        -3.6757    1.2406    5.6089 O.2     1  LIG1        0.0000
     16 N16        -2.2735    1.9901    4.0510 N.am    1  LIG1        0.0000
     17 C17        -1.1234    2.3663   -0.0373 C.2     1  LIG1        0.0000
     18 O18        -1.7581    2.4582   -1.0516 O.2     1  LIG1        0.0000
     19 C19         0.0722    1.5470   -0.0021 C.2     1  LIG1        0.0000
     20 N20         1.2569    1.9748   -0.0880 N.2     1  LIG1        0.0000
     21 N21         2.1379    0.9582   -0.0375 N.pl3   1  LIG1        0.0000
     22 C22         3.4902    1.0730    0.3071 C.3     1  LIG1        0.0000
     23 C23         4.2957   -0.0609    0.3207 C.3     1  LIG1        0.0000
     24 C24         5.6377    0.0623    0.6648 C.3     1  LIG1        0.0000
     25 C25         6.1614    1.3099    0.9903 C.3     1  LIG1        0.0000
     26 C26         5.3485    2.4386    0.9738 C.3     1  LIG1        0.0000
     27 C27         4.0049    2.3240    0.6314 C.3     1  LIG1        0.0000
     28 C28         1.4696   -0.2865   -0.4012 C.3     1  LIG1        0.0000
     29 C29         1.4841   -0.5227   -1.9032 C.2     1  LIG1        0.0000
     30 O30         0.9724   -1.5070   -2.3608 O.2     1  LIG1        0.0000
     31 O31         2.0551    0.3484   -2.6977 O.3     1  LIG1        0.0000
     32 C32         2.0130    0.0330   -4.0816 C.3     1  LIG1        0.0000
     33 C33         2.7103    1.1280   -4.8723 C.3     1  LIG1        0.0000
     34 C34         2.7182   -1.2921   -4.3209 C.3     1  LIG1        0.0000
     35 C35         0.5656   -0.0746   -4.5331 C.3     1  LIG1        0.0000
     36 C36         0.0964    0.0384    0.1413 C.3     1  LIG1        0.0000
     37 H          -2.6379    2.9159    4.1512 H       1  LIG1        0.0000
     38 H           1.8711   -1.0623    0.0857 H       1  LIG1        0.0000
     39 H          -3.3979    5.5278   -0.0121 H       1  LIG1        0.0000
     40 H          -1.7864    5.5314    0.2516 H       1  LIG1        0.0000
     41 H          -2.4253    4.5501   -0.8866 H       1  LIG1        0.0000
     42 H          -2.8889    4.2788    1.9504 H       1  LIG1        0.0000
     43 H          -4.7616    3.5669    0.6634 H       1  LIG1        0.0000
     44 H          -3.7890    2.5892   -0.2111 H       1  LIG1        0.0000
     45 H          -4.0472    2.2804    1.3715 H       1  LIG1        0.0000
     46 H          -0.8441    3.7664    2.8588 H       1  LIG1        0.0000
     47 H           0.2123    2.7731    2.1078 H       1  LIG1        0.0000
     48 H           0.0191   -1.9524    2.9046 H       1  LIG1        0.0000
     49 H          -0.7855   -3.7947    4.1784 H       1  LIG1        0.0000
     50 H          -2.5415   -3.4679    5.7845 H       1  LIG1        0.0000
     51 H          -3.4501   -1.2792    6.0727 H       1  LIG1        0.0000
     52 H           3.9142   -0.9549    0.0857 H       1  LIG1        0.0000
     53 H           6.2265   -0.7459    0.6784 H       1  LIG1        0.0000
     54 H           7.1266    1.3953    1.2373 H       1  LIG1        0.0000
     55 H           5.7301    3.3328    1.2081 H       1  LIG1        0.0000
     56 H           3.4158    3.1319    0.6185 H       1  LIG1        0.0000
     57 H           2.6807    0.9059   -5.8468 H       1  LIG1        0.0000
     58 H           2.2464    1.9998   -4.7148 H       1  LIG1        0.0000
     59 H           3.6626    1.1987   -4.5753 H       1  LIG1        0.0000
     60 H           2.6886   -1.5142   -5.2955 H       1  LIG1        0.0000
     61 H           3.6704   -1.2214   -4.0239 H       1  LIG1        0.0000
     62 H           2.2594   -2.0125   -3.8008 H       1  LIG1        0.0000
     63 H           0.5360   -0.2967   -5.5076 H       1  LIG1        0.0000
     64 H           0.1069   -0.7950   -4.0129 H       1  LIG1        0.0000
     65 H           0.1017    0.7972   -4.3756 H       1  LIG1        0.0000
     66 H          -0.6237   -0.3929   -0.4021 H       1  LIG1        0.0000
     67 H           0.0047   -0.2403    1.0973 H       1  LIG1        0.0000
@<TRIPOS>BOND
     1     1     2    1
     2     2     3    1
     3     2     4    1
     4     4     5    1
     5     5     6    1
     6     6     7    2
     7     7     8    1
     8     8     9   ar
     9     9    10   ar
    10    10    11   ar
    11    11    12   ar
    12    12    13   ar
    13    13     8   ar
    14    13    14    1
    15    14    15    2
    16    14    16   am
    17    16     6    1
    18     4    17   am
    19    17    18    2
    20    17    19    1
    21    19    20    2
    22    20    21    1
    23    21    22    1
    24    22    23   ar
    25    23    24   ar
    26    24    25   ar
    27    25    26   ar
    28    26    27   ar
    29    27    22   ar
    30    21    28    1
    31    28    29    1
    32    29    30    2
    33    29    31    1
    34    31    32    1
    35    32    33    1
    36    32    34    1
    37    32    35    1
    38    28    36    1
    39    36    19    1
    40    16    37    1
    41    28    38    1
    42     1    39    1
    43     1    40    1
    44     1    41    1
    45     2    42    1
    46     3    43    1
    47     3    44    1
    48     3    45    1
    49     5    46    1
    50     5    47    1
    51     9    48    1
    52    10    49    1
    53    11    50    1
    54    12    51    1
    55    23    52    1
    56    24    53    1
    57    25    54    1
    58    26    55    1
    59    27    56    1
    60    33    57    1
    61    33    58    1
    62    33    59    1
    63    34    60    1
    64    34    61    1
    65    34    62    1
    66    35    63    1
    67    35    64    1
    68    35    65    1
    69    36    66    1
    70    36    67    1
