@<TRIPOS>MOLECULE
*****
 67 70 0 0 0
SMALL
USER_CHARGES

@<TRIPOS>ATOM
      1 C1         -0.2649    4.3004    2.7499 C.3     1  LIG1        0.0000
      2 C2         -0.7512    2.9229    2.3298 C.3     1  LIG1        0.0000
      3 C3         -1.6286    2.3395    3.4254 C.3     1  LIG1        0.0000
      4 N4         -1.5286    3.0355    1.0873 N.am    1  LIG1        0.0000
      5 C5         -2.7409    3.8662    1.0516 C.3     1  LIG1        0.0000
      6 C6         -2.3713    5.2847    0.6492 C.2     1  LIG1        0.0000
      7 N7         -2.0516    6.1980    1.5501 N.2     1  LIG1        0.0000
      8 C8         -1.7171    7.4808    1.1977 C.3     1  LIG1        0.0000
      9 C9         -1.3828    8.4323    2.1567 C.3     1  LIG1        0.0000
     10 C10        -1.0436    9.7331    1.8002 C.3     1  LIG1        0.0000
     11 C11        -1.0335   10.1066    0.4615 C.3     1  LIG1        0.0000
     12 C12        -1.3674    9.1528   -0.4932 C.3     1  LIG1        0.0000
     13 C13        -1.7090    7.8471   -0.1447 C.3     1  LIG1        0.0000
     14 C14        -2.0539    6.8603   -1.1096 C.2     1  LIG1        0.0000
     15 O15        -2.0733    7.0902   -2.3093 O.2     1  LIG1        0.0000
     16 N16        -2.3778    5.5996   -0.6844 N.am    1  LIG1        0.0000
     17 C17        -1.1234    2.3663   -0.0373 C.2     1  LIG1        0.0000
     18 O18        -1.7581    2.4582   -1.0516 O.2     1  LIG1        0.0000
     19 C19         0.0722    1.5470   -0.0021 C.2     1  LIG1        0.0000
     20 N20         1.2569    1.9748   -0.0880 N.2     1  LIG1        0.0000
     21 N21         2.1379    0.9582   -0.0375 N.pl3   1  LIG1        0.0000
     22 C22         3.4902    1.0730    0.3071 C.3     1  LIG1        0.0000
     23 C23         4.2957   -0.0609    0.3207 C.3     1  LIG1        0.0000
     24 C24         5.6377    0.0623    0.6648 C.3     1  LIG1        0.0000
     25 C25         6.1614    1.3099    0.9903 C.3     1  LIG1        0.0000
     26 C26         5.3485    2.4386    0.9738 C.3     1  LIG1        0.0000
     27 C27         4.0049    2.3240    0.6314 C.3     1  LIG1        0.0000
     28 C28         1.4696   -0.2865   -0.4012 C.3     1  LIG1        0.0000
     29 C29         1.4841   -0.5227   -1.9032 C.2     1  LIG1        0.0000
     30 O30         2.0071    0.2752   -2.6310 O.2     1  LIG1        0.0000
     31 O31         0.9255   -1.5972   -2.4027 O.3     1  LIG1        0.0000
     32 C32         0.9944   -1.7216   -3.8156 C.3     1  LIG1        0.0000
     33 C33         0.3088   -3.0084   -4.2450 C.3     1  LIG1        0.0000
     34 C34         0.2978   -0.5359   -4.4631 C.3     1  LIG1        0.0000
     35 C35         2.4504   -1.7535   -4.2510 C.3     1  LIG1        0.0000
     36 C36         0.0964    0.0384    0.1413 C.3     1  LIG1        0.0000
     37 H          -2.6223    4.8998   -1.3556 H       1  LIG1        0.0000
     38 H           1.8711   -1.0623    0.0857 H       1  LIG1        0.0000
     39 H           0.2640    4.2237    3.5951 H       1  LIG1        0.0000
     40 H           0.3124    4.6842    2.0291 H       1  LIG1        0.0000
     41 H          -1.0510    4.8994    2.9017 H       1  LIG1        0.0000
     42 H           0.0350    2.3238    2.1780 H       1  LIG1        0.0000
     43 H          -1.0997    2.2629    4.2706 H       1  LIG1        0.0000
     44 H          -2.4147    2.9385    3.5772 H       1  LIG1        0.0000
     45 H          -1.9485    1.4332    3.1490 H       1  LIG1        0.0000
     46 H          -3.1648    3.8764    1.9572 H       1  LIG1        0.0000
     47 H          -3.3846    3.4881    0.3863 H       1  LIG1        0.0000
     48 H          -1.3866    8.1751    3.1231 H       1  LIG1        0.0000
     49 H          -0.8071   10.3998    2.5071 H       1  LIG1        0.0000
     50 H          -0.7918   11.0386    0.1916 H       1  LIG1        0.0000
     51 H          -1.3624    9.4112   -1.4592 H       1  LIG1        0.0000
     52 H           3.9142   -0.9549    0.0857 H       1  LIG1        0.0000
     53 H           6.2265   -0.7459    0.6784 H       1  LIG1        0.0000
     54 H           7.1266    1.3953    1.2373 H       1  LIG1        0.0000
     55 H           5.7301    3.3328    1.2081 H       1  LIG1        0.0000
     56 H           3.4158    3.1319    0.6185 H       1  LIG1        0.0000
     57 H           0.3574   -3.0960   -5.2400 H       1  LIG1        0.0000
     58 H           0.7671   -3.7885   -3.8190 H       1  LIG1        0.0000
     59 H          -0.6490   -2.9874   -3.9585 H       1  LIG1        0.0000
     60 H           0.3463   -0.6234   -5.4581 H       1  LIG1        0.0000
     61 H          -0.6601   -0.5149   -4.1766 H       1  LIG1        0.0000
     62 H           0.7488    0.3107   -4.1806 H       1  LIG1        0.0000
     63 H           2.4989   -1.8410   -5.2460 H       1  LIG1        0.0000
     64 H           2.9014   -0.9068   -3.9685 H       1  LIG1        0.0000
     65 H           2.9087   -2.5335   -3.8250 H       1  LIG1        0.0000
     66 H          -0.6237   -0.3929   -0.4021 H       1  LIG1        0.0000
     67 H           0.0047   -0.2403    1.0973 H       1  LIG1        0.0000
@<TRIPOS>BOND
     1     1     2    1
     2     2     3    1
     3     2     4    1
     4     4     5    1
     5     5     6    1
     6     6     7    2
     7     7     8    1
     8     8     9   ar
     9     9    10   ar
    10    10    11   ar
    11    11    12   ar
    12    12    13   ar
    13    13     8   ar
    14    13    14    1
    15    14    15    2
    16    14    16   am
    17    16     6    1
    18     4    17   am
    19    17    18    2
    20    17    19    1
    21    19    20    2
    22    20    21    1
    23    21    22    1
    24    22    23   ar
    25    23    24   ar
    26    24    25   ar
    27    25    26   ar
    28    26    27   ar
    29    27    22   ar
    30    21    28    1
    31    28    29    1
    32    29    30    2
    33    29    31    1
    34    31    32    1
    35    32    33    1
    36    32    34    1
    37    32    35    1
    38    28    36    1
    39    36    19    1
    40    16    37    1
    41    28    38    1
    42     1    39    1
    43     1    40    1
    44     1    41    1
    45     2    42    1
    46     3    43    1
    47     3    44    1
    48     3    45    1
    49     5    46    1
    50     5    47    1
    51     9    48    1
    52    10    49    1
    53    11    50    1
    54    12    51    1
    55    23    52    1
    56    24    53    1
    57    25    54    1
    58    26    55    1
    59    27    56    1
    60    33    57    1
    61    33    58    1
    62    33    59    1
    63    34    60    1
    64    34    61    1
    65    34    62    1
    66    35    63    1
    67    35    64    1
    68    35    65    1
    69    36    66    1
    70    36    67    1
