@<TRIPOS>MOLECULE

  29   30
SMALL
USER_CHARGES
@<TRIPOS>ATOM
   1 C1          -1.3103    -0.7872     0.0083 C.3          1    LIG   0.0000
   2 C2          -0.0041    -0.0094     0.0008 C.ar         1    LIG   0.0000
   3 C3           1.2092    -0.6885    -0.0160 C.ar         1    LIG   0.0000
   4 C4           2.4040     0.0227    -0.0230 C.ar         1    LIG   0.0000
   5 C5           2.3855     1.4135    -0.0126 C.ar         1    LIG   0.0000
   6 C6           1.1722     2.0925     0.0037 C.ar         1    LIG   0.0000
   7 C7           1.1522     3.6124     0.0146 C.3          1    LIG   0.0000
   8 C8           0.8828     4.1258    -1.3910 C.ar         1    LIG   0.0000
   9 C9          -0.3995     4.5390    -1.7389 C.ar         1    LIG   0.0000
  10 C10         -0.6364     5.0073    -3.0270 C.ar         1    LIG   0.0000
  11 C11          0.3942     5.0634    -3.9594 C.ar         1    LIG   0.0000
  12 C12          1.6734     4.6486    -3.6079 C.ar         1    LIG   0.0000
  13 C13          1.9155     4.1806    -2.3208 C.ar         1    LIG   0.0000
  14 Br14         3.7215     3.5982    -1.8299 Br           1    LIG   0.0000
  15 C15         -0.0227     1.3814     0.0104 C.ar         1    LIG   0.0000
  16 O16         -1.2011     2.0411     0.0271 O.3          1    LIG   0.0000
  17 H           -1.1144    -1.7678    -0.0002 H            1    LIG   0.0000
  18 H           -1.8298    -0.5582     0.8315 H            1    LIG   0.0000
  19 H           -1.8458    -0.5471    -0.8013 H            1    LIG   0.0000
  20 H            1.2225    -1.6884    -0.0231 H            1    LIG   0.0000
  21 H            3.2765    -0.4657    -0.0355 H            1    LIG   0.0000
  22 H            3.2448     1.9250    -0.0167 H            1    LIG   0.0000
  23 H            0.4316     3.9319     0.6299 H            1    LIG   0.0000
  24 H            2.0368     3.9552     0.3308 H            1    LIG   0.0000
  25 H           -1.1423     4.4997    -1.0706 H            1    LIG   0.0000
  26 H           -1.5552     5.3061    -3.2848 H            1    LIG   0.0000
  27 H            0.2147     5.4024    -4.8829 H            1    LIG   0.0000
  28 H            2.4158     4.6865    -4.2769 H            1    LIG   0.0000
  29 H           -2.0604     1.5296     0.0319 H            1    LIG   0.0000
@<TRIPOS>BOND
   1        1        2 1
   2        2        3 ar
   3        3        4 ar
   4        4        5 ar
   5        5        6 ar
   6        6        7 1
   7        7        8 1
   8        8        9 ar
   9        9       10 ar
  10       10       11 ar
  11       11       12 ar
  12       12       13 ar
  13       13        8 ar
  14       13       14 1
  15        6       15 ar
  16       15        2 ar
  17       15       16 1
  18        1       17 1
  19        1       18 1
  20        1       19 1
  21        3       20 1
  22        4       21 1
  23        5       22 1
  24        7       23 1
  25        7       24 1
  26        9       25 1
  27       10       26 1
  28       11       27 1
  29       12       28 1
  30       16       29 1

@<TRIPOS>MOLECULE

  29   30
SMALL
USER_CHARGES
@<TRIPOS>ATOM
   1 C1          -1.3103    -0.7872     0.0083 C.3          1    LIG   0.0000
   2 C2          -0.0041    -0.0094     0.0008 C.ar         1    LIG   0.0000
   3 C3           1.2092    -0.6885    -0.0160 C.ar         1    LIG   0.0000
   4 C4           2.4040     0.0227    -0.0230 C.ar         1    LIG   0.0000
   5 C5           2.3855     1.4135    -0.0126 C.ar         1    LIG   0.0000
   6 C6           1.1722     2.0925     0.0037 C.ar         1    LIG   0.0000
   7 C7           1.1522     3.6124     0.0146 C.3          1    LIG   0.0000
   8 C8           0.8828     4.1258    -1.3910 C.ar         1    LIG   0.0000
   9 C9           1.9210     4.1775    -2.3158 C.ar         1    LIG   0.0000
  10 C10          1.6650     4.6484    -3.5992 C.ar         1    LIG   0.0000
  11 C11          0.3870     5.0638    -3.9579 C.ar         1    LIG   0.0000
  12 C12         -0.6472     5.0115    -3.0306 C.ar         1    LIG   0.0000
  13 C13         -0.3963     4.5404    -1.7462 C.ar         1    LIG   0.0000
  14 Br14        -1.8584     4.4674    -0.4428 Br           1    LIG   0.0000
  15 C15         -0.0227     1.3814     0.0104 C.ar         1    LIG   0.0000
  16 O16         -1.2011     2.0411     0.0271 O.3          1    LIG   0.0000
  17 H           -1.1144    -1.7678    -0.0002 H            1    LIG   0.0000
  18 H           -1.8298    -0.5582     0.8315 H            1    LIG   0.0000
  19 H           -1.8458    -0.5471    -0.8013 H            1    LIG   0.0000
  20 H            1.2225    -1.6884    -0.0231 H            1    LIG   0.0000
  21 H            3.2765    -0.4657    -0.0355 H            1    LIG   0.0000
  22 H            3.2448     1.9250    -0.0167 H            1    LIG   0.0000
  23 H            0.4316     3.9319     0.6299 H            1    LIG   0.0000
  24 H            2.0368     3.9552     0.3308 H            1    LIG   0.0000
  25 H            2.8408     3.8795    -2.0606 H            1    LIG   0.0000
  26 H            2.4059     4.6886    -4.2696 H            1    LIG   0.0000
  27 H            0.2121     5.4001    -4.8832 H            1    LIG   0.0000
  28 H           -1.5666     5.3111    -3.2855 H            1    LIG   0.0000
  29 H           -2.0604     1.5296     0.0319 H            1    LIG   0.0000
@<TRIPOS>BOND
   1        1        2 1
   2        2        3 ar
   3        3        4 ar
   4        4        5 ar
   5        5        6 ar
   6        6        7 1
   7        7        8 1
   8        8        9 ar
   9        9       10 ar
  10       10       11 ar
  11       11       12 ar
  12       12       13 ar
  13       13        8 ar
  14       13       14 1
  15        6       15 ar
  16       15        2 ar
  17       15       16 1
  18        1       17 1
  19        1       18 1
  20        1       19 1
  21        3       20 1
  22        4       21 1
  23        5       22 1
  24        7       23 1
  25        7       24 1
  26        9       25 1
  27       10       26 1
  28       11       27 1
  29       12       28 1
  30       16       29 1

@<TRIPOS>MOLECULE

  29   30
SMALL
USER_CHARGES
@<TRIPOS>ATOM
   1 C1          -1.3103    -0.7872     0.0083 C.3          1    LIG   0.0000
   2 C2          -0.0041    -0.0094     0.0008 C.ar         1    LIG   0.0000
   3 C3           1.2092    -0.6885    -0.0160 C.ar         1    LIG   0.0000
   4 C4           2.4040     0.0227    -0.0230 C.ar         1    LIG   0.0000
   5 C5           2.3855     1.4135    -0.0126 C.ar         1    LIG   0.0000
   6 C6           1.1722     2.0925     0.0037 C.ar         1    LIG   0.0000
   7 C7           1.1522     3.6124     0.0146 C.3          1    LIG   0.0000
   8 C8           0.8828     4.1258    -1.3910 C.ar         1    LIG   0.0000
   9 C9           0.7018     3.2202    -2.4317 C.ar         1    LIG   0.0000
  10 C10          0.4556     3.6992    -3.7141 C.ar         1    LIG   0.0000
  11 C11          0.3904     5.0670    -3.9573 C.ar         1    LIG   0.0000
  12 C12          0.5728     5.9683    -2.9150 C.ar         1    LIG   0.0000
  13 C13          0.8182     5.4942    -1.6307 C.ar         1    LIG   0.0000
  14 Br14         1.0734     6.7692    -0.1641 Br           1    LIG   0.0000
  15 C15         -0.0227     1.3814     0.0104 C.ar         1    LIG   0.0000
  16 O16         -1.2011     2.0411     0.0271 O.3          1    LIG   0.0000
  17 H           -1.1144    -1.7678    -0.0002 H            1    LIG   0.0000
  18 H           -1.8298    -0.5582     0.8315 H            1    LIG   0.0000
  19 H           -1.8458    -0.5471    -0.8013 H            1    LIG   0.0000
  20 H            1.2225    -1.6884    -0.0231 H            1    LIG   0.0000
  21 H            3.2765    -0.4657    -0.0355 H            1    LIG   0.0000
  22 H            3.2448     1.9250    -0.0167 H            1    LIG   0.0000
  23 H            0.4316     3.9319     0.6299 H            1    LIG   0.0000
  24 H            2.0368     3.9552     0.3308 H            1    LIG   0.0000
  25 H            0.7482     2.2362    -2.2596 H            1    LIG   0.0000
  26 H            0.3245     3.0547    -4.4674 H            1    LIG   0.0000
  27 H            0.2121     5.4022    -4.8825 H            1    LIG   0.0000
  28 H            0.5280     6.9523    -3.0875 H            1    LIG   0.0000
  29 H           -2.0604     1.5296     0.0319 H            1    LIG   0.0000
@<TRIPOS>BOND
   1        1        2 1
   2        2        3 ar
   3        3        4 ar
   4        4        5 ar
   5        5        6 ar
   6        6        7 1
   7        7        8 1
   8        8        9 ar
   9        9       10 ar
  10       10       11 ar
  11       11       12 ar
  12       12       13 ar
  13       13        8 ar
  14       13       14 1
  15        6       15 ar
  16       15        2 ar
  17       15       16 1
  18        1       17 1
  19        1       18 1
  20        1       19 1
  21        3       20 1
  22        4       21 1
  23        5       22 1
  24        7       23 1
  25        7       24 1
  26        9       25 1
  27       10       26 1
  28       11       27 1
  29       12       28 1
  30       16       29 1

@<TRIPOS>MOLECULE

  29   30
SMALL
USER_CHARGES
@<TRIPOS>ATOM
   1 C1          -1.3103    -0.7872     0.0083 C.3          1    LIG   0.0000
   2 C2          -0.0041    -0.0094     0.0008 C.ar         1    LIG   0.0000
   3 C3           1.2092    -0.6885    -0.0160 C.ar         1    LIG   0.0000
   4 C4           2.4040     0.0227    -0.0230 C.ar         1    LIG   0.0000
   5 C5           2.3855     1.4135    -0.0126 C.ar         1    LIG   0.0000
   6 C6           1.1722     2.0925     0.0037 C.ar         1    LIG   0.0000
   7 C7           1.1522     3.6124     0.0146 C.3          1    LIG   0.0000
   8 C8           0.9104     4.1060     1.4322 C.ar         1    LIG   0.0000
   9 C9           1.9667     4.1451     2.3370 C.ar         1    LIG   0.0000
  10 C10          1.7361     4.5982     3.6316 C.ar         1    LIG   0.0000
  11 C11          0.4654     5.0085     4.0210 C.ar         1    LIG   0.0000
  12 C12         -0.5873     4.9667     3.1142 C.ar         1    LIG   0.0000
  13 C13         -0.3613     4.5153     1.8183 C.ar         1    LIG   0.0000
  14 Br14        -1.8489     4.4598     0.5431 Br           1    LIG   0.0000
  15 C15         -0.0227     1.3814     0.0104 C.ar         1    LIG   0.0000
  16 O16         -1.2011     2.0411     0.0271 O.3          1    LIG   0.0000
  17 H           -1.1144    -1.7678    -0.0002 H            1    LIG   0.0000
  18 H           -1.8298    -0.5582     0.8315 H            1    LIG   0.0000
  19 H           -1.8458    -0.5471    -0.8013 H            1    LIG   0.0000
  20 H            1.2225    -1.6884    -0.0231 H            1    LIG   0.0000
  21 H            3.2765    -0.4657    -0.0355 H            1    LIG   0.0000
  22 H            3.2448     1.9250    -0.0167 H            1    LIG   0.0000
  23 H            2.0304     3.9597    -0.3141 H            1    LIG   0.0000
  24 H            0.4197     3.9404    -0.5820 H            1    LIG   0.0000
  25 H            2.8813     3.8507     2.0597 H            1    LIG   0.0000
  26 H            2.4900     4.6294     4.2878 H            1    LIG   0.0000
  27 H            0.3091     5.3336     4.9537 H            1    LIG   0.0000
  28 H           -1.5021     5.2596     3.3922 H            1    LIG   0.0000
  29 H           -2.0604     1.5296     0.0319 H            1    LIG   0.0000
@<TRIPOS>BOND
   1        1        2 1
   2        2        3 ar
   3        3        4 ar
   4        4        5 ar
   5        5        6 ar
   6        6        7 1
   7        7        8 1
   8        8        9 ar
   9        9       10 ar
  10       10       11 ar
  11       11       12 ar
  12       12       13 ar
  13       13        8 ar
  14       13       14 1
  15        6       15 ar
  16       15        2 ar
  17       15       16 1
  18        1       17 1
  19        1       18 1
  20        1       19 1
  21        3       20 1
  22        4       21 1
  23        5       22 1
  24        7       23 1
  25        7       24 1
  26        9       25 1
  27       10       26 1
  28       11       27 1
  29       12       28 1
  30       16       29 1

@<TRIPOS>MOLECULE

  29   30
SMALL
USER_CHARGES
@<TRIPOS>ATOM
   1 C1          -1.3103    -0.7872     0.0083 C.3          1    LIG   0.0000
   2 C2          -0.0041    -0.0094     0.0008 C.ar         1    LIG   0.0000
   3 C3           1.2092    -0.6885    -0.0160 C.ar         1    LIG   0.0000
   4 C4           2.4040     0.0227    -0.0230 C.ar         1    LIG   0.0000
   5 C5           2.3855     1.4135    -0.0126 C.ar         1    LIG   0.0000
   6 C6           1.1722     2.0925     0.0037 C.ar         1    LIG   0.0000
   7 C7           1.1522     3.6124     0.0146 C.3          1    LIG   0.0000
   8 C8           0.9104     4.1060     1.4322 C.ar         1    LIG   0.0000
   9 C9          -0.3647     4.5137     1.8111 C.ar         1    LIG   0.0000
  10 C10         -0.5763     4.9635     3.1101 C.ar         1    LIG   0.0000
  11 C11          0.4723     5.0066     4.0228 C.ar         1    LIG   0.0000
  12 C12          1.7449     4.5993     3.6398 C.ar         1    LIG   0.0000
  13 C13          1.9612     4.1478     2.3422 C.ar         1    LIG   0.0000
  14 Br14         3.7573     3.5733     1.8076 Br           1    LIG   0.0000
  15 C15         -0.0227     1.3814     0.0104 C.ar         1    LIG   0.0000
  16 O16         -1.2011     2.0411     0.0271 O.3          1    LIG   0.0000
  17 H           -1.1144    -1.7678    -0.0002 H            1    LIG   0.0000
  18 H           -1.8298    -0.5582     0.8315 H            1    LIG   0.0000
  19 H           -1.8458    -0.5471    -0.8013 H            1    LIG   0.0000
  20 H            1.2225    -1.6884    -0.0231 H            1    LIG   0.0000
  21 H            3.2765    -0.4657    -0.0355 H            1    LIG   0.0000
  22 H            3.2448     1.9250    -0.0167 H            1    LIG   0.0000
  23 H            2.0304     3.9597    -0.3141 H            1    LIG   0.0000
  24 H            0.4197     3.9404    -0.5820 H            1    LIG   0.0000
  25 H           -1.1205     4.4838     1.1569 H            1    LIG   0.0000
  26 H           -1.4899     5.2583     3.3902 H            1    LIG   0.0000
  27 H            0.3106     5.3307     4.9549 H            1    LIG   0.0000
  28 H            2.5009     4.6309     4.2937 H            1    LIG   0.0000
  29 H           -2.0604     1.5296     0.0319 H            1    LIG   0.0000
@<TRIPOS>BOND
   1        1        2 1
   2        2        3 ar
   3        3        4 ar
   4        4        5 ar
   5        5        6 ar
   6        6        7 1
   7        7        8 1
   8        8        9 ar
   9        9       10 ar
  10       10       11 ar
  11       11       12 ar
  12       12       13 ar
  13       13        8 ar
  14       13       14 1
  15        6       15 ar
  16       15        2 ar
  17       15       16 1
  18        1       17 1
  19        1       18 1
  20        1       19 1
  21        3       20 1
  22        4       21 1
  23        5       22 1
  24        7       23 1
  25        7       24 1
  26        9       25 1
  27       10       26 1
  28       11       27 1
  29       12       28 1
  30       16       29 1

@<TRIPOS>MOLECULE

  29   30
SMALL
USER_CHARGES
@<TRIPOS>ATOM
   1 C1          -1.3103    -0.7872     0.0083 C.3          1    LIG   0.0000
   2 C2          -0.0041    -0.0094     0.0008 C.ar         1    LIG   0.0000
   3 C3           1.2092    -0.6885    -0.0160 C.ar         1    LIG   0.0000
   4 C4           2.4040     0.0227    -0.0230 C.ar         1    LIG   0.0000
   5 C5           2.3855     1.4135    -0.0126 C.ar         1    LIG   0.0000
   6 C6           1.1722     2.0925     0.0037 C.ar         1    LIG   0.0000
   7 C7           1.1522     3.6124     0.0146 C.3          1    LIG   0.0000
   8 C8           0.9104     4.1060     1.4322 C.ar         1    LIG   0.0000
   9 C9           0.7501     3.1858     2.4635 C.ar         1    LIG   0.0000
  10 C10          0.5296     3.6467     3.7571 C.ar         1    LIG   0.0000
  11 C11          0.4694     5.0110     4.0208 C.ar         1    LIG   0.0000
  12 C12          0.6290     5.9268     2.9874 C.ar         1    LIG   0.0000
  13 C13          0.8508     5.4708     1.6923 C.ar         1    LIG   0.0000
  14 Br14         1.0766     6.7664     0.2389 Br           1    LIG   0.0000
  15 C15         -0.0227     1.3814     0.0104 C.ar         1    LIG   0.0000
  16 O16         -1.2011     2.0411     0.0271 O.3          1    LIG   0.0000
  17 H           -1.1144    -1.7678    -0.0002 H            1    LIG   0.0000
  18 H           -1.8298    -0.5582     0.8315 H            1    LIG   0.0000
  19 H           -1.8458    -0.5471    -0.8013 H            1    LIG   0.0000
  20 H            1.2225    -1.6884    -0.0231 H            1    LIG   0.0000
  21 H            3.2765    -0.4657    -0.0355 H            1    LIG   0.0000
  22 H            3.2448     1.9250    -0.0167 H            1    LIG   0.0000
  23 H            2.0304     3.9597    -0.3141 H            1    LIG   0.0000
  24 H            0.4197     3.9404    -0.5820 H            1    LIG   0.0000
  25 H            0.7929     2.2044     2.2767 H            1    LIG   0.0000
  26 H            0.4134     2.9917     4.5038 H            1    LIG   0.0000
  27 H            0.3113     5.3331     4.9542 H            1    LIG   0.0000
  28 H            0.5846     6.9082     3.1741 H            1    LIG   0.0000
  29 H           -2.0604     1.5296     0.0319 H            1    LIG   0.0000
@<TRIPOS>BOND
   1        1        2 1
   2        2        3 ar
   3        3        4 ar
   4        4        5 ar
   5        5        6 ar
   6        6        7 1
   7        7        8 1
   8        8        9 ar
   9        9       10 ar
  10       10       11 ar
  11       11       12 ar
  12       12       13 ar
  13       13        8 ar
  14       13       14 1
  15        6       15 ar
  16       15        2 ar
  17       15       16 1
  18        1       17 1
  19        1       18 1
  20        1       19 1
  21        3       20 1
  22        4       21 1
  23        5       22 1
  24        7       23 1
  25        7       24 1
  26        9       25 1
  27       10       26 1
  28       11       27 1
  29       12       28 1
  30       16       29 1

@<TRIPOS>MOLECULE

  29   30
SMALL
USER_CHARGES
@<TRIPOS>ATOM
   1 C1          -1.3103    -0.7872     0.0083 C.3          1    LIG   0.0000
   2 C2          -0.0041    -0.0094     0.0008 C.ar         1    LIG   0.0000
   3 C3           1.2092    -0.6885    -0.0160 C.ar         1    LIG   0.0000
   4 C4           2.4040     0.0227    -0.0230 C.ar         1    LIG   0.0000
   5 C5           2.3855     1.4135    -0.0126 C.ar         1    LIG   0.0000
   6 C6           1.1722     2.0925     0.0037 C.ar         1    LIG   0.0000
   7 C7           1.1522     3.6124     0.0146 C.3          1    LIG   0.0000
   8 C8           2.5545     4.1397    -0.2444 C.ar         1    LIG   0.0000
   9 C9           2.8998     4.5809    -1.5180 C.ar         1    LIG   0.0000
  10 C10          4.1849     5.0618    -1.7454 C.ar         1    LIG   0.0000
  11 C11          5.1171     5.1026    -0.7140 C.ar         1    LIG   0.0000
  12 C12          4.7684     4.6597     0.5566 C.ar         1    LIG   0.0000
  13 C13          3.4842     4.1790     0.7891 C.ar         1    LIG   0.0000
  14 Br14         2.9971     3.5570     2.5830 Br           1    LIG   0.0000
  15 C15         -0.0227     1.3814     0.0104 C.ar         1    LIG   0.0000
  16 O16         -1.2011     2.0411     0.0271 O.3          1    LIG   0.0000
  17 H           -1.1144    -1.7678    -0.0002 H            1    LIG   0.0000
  18 H           -1.8298    -0.5582     0.8315 H            1    LIG   0.0000
  19 H           -1.8458    -0.5471    -0.8013 H            1    LIG   0.0000
  20 H            1.2225    -1.6884    -0.0231 H            1    LIG   0.0000
  21 H            3.2765    -0.4657    -0.0355 H            1    LIG   0.0000
  22 H            3.2448     1.9250    -0.0167 H            1    LIG   0.0000
  23 H            0.5347     3.9428    -0.6994 H            1    LIG   0.0000
  24 H            0.8340     3.9352     0.9060 H            1    LIG   0.0000
  25 H            2.2315     4.5527    -2.2614 H            1    LIG   0.0000
  26 H            4.4408     5.3808    -2.6579 H            1    LIG   0.0000
  27 H            6.0386     5.4507    -0.8866 H            1    LIG   0.0000
  28 H            5.4373     4.6865     1.2995 H            1    LIG   0.0000
  29 H           -2.0604     1.5296     0.0319 H            1    LIG   0.0000
@<TRIPOS>BOND
   1        1        2 1
   2        2        3 ar
   3        3        4 ar
   4        4        5 ar
   5        5        6 ar
   6        6        7 1
   7        7        8 1
   8        8        9 ar
   9        9       10 ar
  10       10       11 ar
  11       11       12 ar
  12       12       13 ar
  13       13        8 ar
  14       13       14 1
  15        6       15 ar
  16       15        2 ar
  17       15       16 1
  18        1       17 1
  19        1       18 1
  20        1       19 1
  21        3       20 1
  22        4       21 1
  23        5       22 1
  24        7       23 1
  25        7       24 1
  26        9       25 1
  27       10       26 1
  28       11       27 1
  29       12       28 1
  30       16       29 1

@<TRIPOS>MOLECULE

  29   30
SMALL
USER_CHARGES
@<TRIPOS>ATOM
   1 C1          -1.3103    -0.7872     0.0083 C.3          1    LIG   0.0000
   2 C2          -0.0041    -0.0094     0.0008 C.ar         1    LIG   0.0000
   3 C3           1.2092    -0.6885    -0.0160 C.ar         1    LIG   0.0000
   4 C4           2.4040     0.0227    -0.0230 C.ar         1    LIG   0.0000
   5 C5           2.3855     1.4135    -0.0126 C.ar         1    LIG   0.0000
   6 C6           1.1722     2.0925     0.0037 C.ar         1    LIG   0.0000
   7 C7           1.1522     3.6124     0.0146 C.3          1    LIG   0.0000
   8 C8           2.5545     4.1397    -0.2444 C.ar         1    LIG   0.0000
   9 C9           3.3364     4.5697     0.8232 C.ar         1    LIG   0.0000
  10 C10          4.6181     5.0502     0.5765 C.ar         1    LIG   0.0000
  11 C11          5.1161     5.1019    -0.7211 C.ar         1    LIG   0.0000
  12 C12          4.3313     4.6723    -1.7849 C.ar         1    LIG   0.0000
  13 C13          3.0493     4.1900    -1.5432 C.ar         1    LIG   0.0000
  14 Br14         1.9472     3.5842    -3.0466 Br           1    LIG   0.0000
  15 C15         -0.0227     1.3814     0.0104 C.ar         1    LIG   0.0000
  16 O16         -1.2011     2.0411     0.0271 O.3          1    LIG   0.0000
  17 H           -1.1144    -1.7678    -0.0002 H            1    LIG   0.0000
  18 H           -1.8298    -0.5582     0.8315 H            1    LIG   0.0000
  19 H           -1.8458    -0.5471    -0.8013 H            1    LIG   0.0000
  20 H            1.2225    -1.6884    -0.0231 H            1    LIG   0.0000
  21 H            3.2765    -0.4657    -0.0355 H            1    LIG   0.0000
  22 H            3.2448     1.9250    -0.0167 H            1    LIG   0.0000
  23 H            0.5347     3.9428    -0.6994 H            1    LIG   0.0000
  24 H            0.8340     3.9352     0.9060 H            1    LIG   0.0000
  25 H            2.9808     4.5336     1.7571 H            1    LIG   0.0000
  26 H            5.1862     5.3611     1.3385 H            1    LIG   0.0000
  27 H            6.0391     5.4481    -0.8888 H            1    LIG   0.0000
  28 H            4.6864     4.7099    -2.7189 H            1    LIG   0.0000
  29 H           -2.0604     1.5296     0.0319 H            1    LIG   0.0000
@<TRIPOS>BOND
   1        1        2 1
   2        2        3 ar
   3        3        4 ar
   4        4        5 ar
   5        5        6 ar
   6        6        7 1
   7        7        8 1
   8        8        9 ar
   9        9       10 ar
  10       10       11 ar
  11       11       12 ar
  12       12       13 ar
  13       13        8 ar
  14       13       14 1
  15        6       15 ar
  16       15        2 ar
  17       15       16 1
  18        1       17 1
  19        1       18 1
  20        1       19 1
  21        3       20 1
  22        4       21 1
  23        5       22 1
  24        7       23 1
  25        7       24 1
  26        9       25 1
  27       10       26 1
  28       11       27 1
  29       12       28 1
  30       16       29 1

@<TRIPOS>MOLECULE

  29   30
SMALL
USER_CHARGES
@<TRIPOS>ATOM
   1 C1          -1.3103    -0.7872     0.0083 C.3          1    LIG   0.0000
   2 C2          -0.0041    -0.0094     0.0008 C.ar         1    LIG   0.0000
   3 C3           1.2092    -0.6885    -0.0160 C.ar         1    LIG   0.0000
   4 C4           2.4040     0.0227    -0.0230 C.ar         1    LIG   0.0000
   5 C5           2.3855     1.4135    -0.0126 C.ar         1    LIG   0.0000
   6 C6           1.1722     2.0925     0.0037 C.ar         1    LIG   0.0000
   7 C7           1.1522     3.6124     0.0146 C.3          1    LIG   0.0000
   8 C8           1.8743     4.1200     1.2525 C.ar         1    LIG   0.0000
   9 C9           3.1883     4.5657     1.1488 C.ar         1    LIG   0.0000
  10 C10          3.8407     5.0284     2.2867 C.ar         1    LIG   0.0000
  11 C11          3.1904     5.0469     3.5160 C.ar         1    LIG   0.0000
  12 C12          1.8780     4.5996     3.6155 C.ar         1    LIG   0.0000
  13 C13          1.2211     4.1370     2.4802 C.ar         1    LIG   0.0000
  14 Br14        -0.6299     3.5088     2.6255 Br           1    LIG   0.0000
  15 C15         -0.0227     1.3814     0.0104 C.ar         1    LIG   0.0000
  16 O16         -1.2011     2.0411     0.0271 O.3          1    LIG   0.0000
  17 H           -1.1144    -1.7678    -0.0002 H            1    LIG   0.0000
  18 H           -1.8298    -0.5582     0.8315 H            1    LIG   0.0000
  19 H           -1.8458    -0.5471    -0.8013 H            1    LIG   0.0000
  20 H            1.2225    -1.6884    -0.0231 H            1    LIG   0.0000
  21 H            3.2765    -0.4657    -0.0355 H            1    LIG   0.0000
  22 H            3.2448     1.9250    -0.0167 H            1    LIG   0.0000
  23 H            1.6111     3.9577    -0.8041 H            1    LIG   0.0000
  24 H            0.2051     3.9332     0.0261 H            1    LIG   0.0000
  25 H            3.6582     4.5535     0.2662 H            1    LIG   0.0000
  26 H            4.7851     5.3504     2.2204 H            1    LIG   0.0000
  27 H            3.6671     5.3820     4.3287 H            1    LIG   0.0000
  28 H            1.4088     4.6104     4.4984 H            1    LIG   0.0000
  29 H           -2.0604     1.5296     0.0319 H            1    LIG   0.0000
@<TRIPOS>BOND
   1        1        2 1
   2        2        3 ar
   3        3        4 ar
   4        4        5 ar
   5        5        6 ar
   6        6        7 1
   7        7        8 1
   8        8        9 ar
   9        9       10 ar
  10       10       11 ar
  11       11       12 ar
  12       12       13 ar
  13       13        8 ar
  14       13       14 1
  15        6       15 ar
  16       15        2 ar
  17       15       16 1
  18        1       17 1
  19        1       18 1
  20        1       19 1
  21        3       20 1
  22        4       21 1
  23        5       22 1
  24        7       23 1
  25        7       24 1
  26        9       25 1
  27       10       26 1
  28       11       27 1
  29       12       28 1
  30       16       29 1

@<TRIPOS>MOLECULE

  29   30
SMALL
USER_CHARGES
@<TRIPOS>ATOM
   1 C1          -1.3103    -0.7872     0.0083 C.3          1    LIG   0.0000
   2 C2          -0.0041    -0.0094     0.0008 C.ar         1    LIG   0.0000
   3 C3           1.2092    -0.6885    -0.0160 C.ar         1    LIG   0.0000
   4 C4           2.4040     0.0227    -0.0230 C.ar         1    LIG   0.0000
   5 C5           2.3855     1.4135    -0.0126 C.ar         1    LIG   0.0000
   6 C6           1.1722     2.0925     0.0037 C.ar         1    LIG   0.0000
   7 C7           1.1522     3.6124     0.0146 C.3          1    LIG   0.0000
   8 C8           1.8743     4.1200     1.2525 C.ar         1    LIG   0.0000
   9 C9           1.2142     4.1338     2.4773 C.ar         1    LIG   0.0000
  10 C10          1.8830     4.5997     3.6044 C.ar         1    LIG   0.0000
  11 C11          3.1966     5.0474     3.5122 C.ar         1    LIG   0.0000
  12 C12          3.8519     5.0329     2.2864 C.ar         1    LIG   0.0000
  13 C13          3.1877     4.5669     1.1568 C.ar         1    LIG   0.0000
  14 Br14         4.1168     4.5472    -0.5690 Br           1    LIG   0.0000
  15 C15         -0.0227     1.3814     0.0104 C.ar         1    LIG   0.0000
  16 O16         -1.2011     2.0411     0.0271 O.3          1    LIG   0.0000
  17 H           -1.1144    -1.7678    -0.0002 H            1    LIG   0.0000
  18 H           -1.8298    -0.5582     0.8315 H            1    LIG   0.0000
  19 H           -1.8458    -0.5471    -0.8013 H            1    LIG   0.0000
  20 H            1.2225    -1.6884    -0.0231 H            1    LIG   0.0000
  21 H            3.2765    -0.4657    -0.0355 H            1    LIG   0.0000
  22 H            3.2448     1.9250    -0.0167 H            1    LIG   0.0000
  23 H            1.6111     3.9577    -0.8041 H            1    LIG   0.0000
  24 H            0.2051     3.9332     0.0261 H            1    LIG   0.0000
  25 H            0.2698     3.8125     2.5464 H            1    LIG   0.0000
  26 H            1.4155     4.6129     4.4883 H            1    LIG   0.0000
  27 H            3.6697     5.3799     4.3280 H            1    LIG   0.0000
  28 H            4.7959     5.3557     2.2172 H            1    LIG   0.0000
  29 H           -2.0604     1.5296     0.0319 H            1    LIG   0.0000
@<TRIPOS>BOND
   1        1        2 1
   2        2        3 ar
   3        3        4 ar
   4        4        5 ar
   5        5        6 ar
   6        6        7 1
   7        7        8 1
   8        8        9 ar
   9        9       10 ar
  10       10       11 ar
  11       11       12 ar
  12       12       13 ar
  13       13        8 ar
  14       13       14 1
  15        6       15 ar
  16       15        2 ar
  17       15       16 1
  18        1       17 1
  19        1       18 1
  20        1       19 1
  21        3       20 1
  22        4       21 1
  23        5       22 1
  24        7       23 1
  25        7       24 1
  26        9       25 1
  27       10       26 1
  28       11       27 1
  29       12       28 1
  30       16       29 1

@<TRIPOS>MOLECULE

  29   30
SMALL
USER_CHARGES
@<TRIPOS>ATOM
   1 C1          -1.3103    -0.7872     0.0083 C.3          1    LIG   0.0000
   2 C2          -0.0041    -0.0094     0.0008 C.ar         1    LIG   0.0000
   3 C3           1.2092    -0.6885    -0.0160 C.ar         1    LIG   0.0000
   4 C4           2.4040     0.0227    -0.0230 C.ar         1    LIG   0.0000
   5 C5           2.3855     1.4135    -0.0126 C.ar         1    LIG   0.0000
   6 C6           1.1722     2.0925     0.0037 C.ar         1    LIG   0.0000
   7 C7           1.1522     3.6124     0.0146 C.3          1    LIG   0.0000
   8 C8           2.1689     4.1255     1.0219 C.ar         1    LIG   0.0000
   9 C9           2.7806     3.2340     1.8976 C.ar         1    LIG   0.0000
  10 C10          3.7095     3.7125     2.8155 C.ar         1    LIG   0.0000
  11 C11          4.0261     5.0661     2.8605 C.ar         1    LIG   0.0000
  12 C12          3.4119     5.9535     1.9845 C.ar         1    LIG   0.0000
  13 C13          2.4831     5.4796     1.0642 C.ar         1    LIG   0.0000
  14 Br14         1.6208     6.7349    -0.1698 Br           1    LIG   0.0000
  15 C15         -0.0227     1.3814     0.0104 C.ar         1    LIG   0.0000
  16 O16         -1.2011     2.0411     0.0271 O.3          1    LIG   0.0000
  17 H           -1.1144    -1.7678    -0.0002 H            1    LIG   0.0000
  18 H           -1.8298    -0.5582     0.8315 H            1    LIG   0.0000
  19 H           -1.8458    -0.5471    -0.8013 H            1    LIG   0.0000
  20 H            1.2225    -1.6884    -0.0231 H            1    LIG   0.0000
  21 H            3.2765    -0.4657    -0.0355 H            1    LIG   0.0000
  22 H            3.2448     1.9250    -0.0167 H            1    LIG   0.0000
  23 H            1.3828     3.9554    -0.8960 H            1    LIG   0.0000
  24 H            0.2396     3.9319     0.2698 H            1    LIG   0.0000
  25 H            2.5548     2.2603     1.8675 H            1    LIG   0.0000
  26 H            4.1535     3.0781     3.4483 H            1    LIG   0.0000
  27 H            4.6958     5.4010     3.5233 H            1    LIG   0.0000
  28 H            3.6366     6.9275     2.0159 H            1    LIG   0.0000
  29 H           -2.0604     1.5296     0.0319 H            1    LIG   0.0000
@<TRIPOS>BOND
   1        1        2 1
   2        2        3 ar
   3        3        4 ar
   4        4        5 ar
   5        5        6 ar
   6        6        7 1
   7        7        8 1
   8        8        9 ar
   9        9       10 ar
  10       10       11 ar
  11       11       12 ar
  12       12       13 ar
  13       13        8 ar
  14       13       14 1
  15        6       15 ar
  16       15        2 ar
  17       15       16 1
  18        1       17 1
  19        1       18 1
  20        1       19 1
  21        3       20 1
  22        4       21 1
  23        5       22 1
  24        7       23 1
  25        7       24 1
  26        9       25 1
  27       10       26 1
  28       11       27 1
  29       12       28 1
  30       16       29 1

