@<TRIPOS>MOLECULE
*****
 29 30 0 0 0
SMALL
USER_CHARGES

@<TRIPOS>ATOM
      1 C1         -1.3103   -0.7872    0.0083 C.3     1  LIG1        0.0000
      2 C2         -0.0041   -0.0094    0.0008 C.ar    1  LIG1        0.0000
      3 C3          1.2092   -0.6885   -0.0160 C.ar    1  LIG1        0.0000
      4 C4          2.4040    0.0227   -0.0230 C.ar    1  LIG1        0.0000
      5 C5          2.3855    1.4135   -0.0126 C.ar    1  LIG1        0.0000
      6 C6          1.1722    2.0925    0.0037 C.ar    1  LIG1        0.0000
      7 C7          1.1522    3.6124    0.0146 C.3     1  LIG1        0.0000
      8 C8          0.9104    4.1060    1.4322 C.ar    1  LIG1        0.0000
      9 C9          1.9667    4.1451    2.3370 C.ar    1  LIG1        0.0000
     10 C10         1.7361    4.5982    3.6316 C.ar    1  LIG1        0.0000
     11 C11         0.4654    5.0085    4.0210 C.ar    1  LIG1        0.0000
     12 C12        -0.5873    4.9667    3.1142 C.ar    1  LIG1        0.0000
     13 C13        -0.3613    4.5153    1.8183 C.ar    1  LIG1        0.0000
     14 Br14       -1.8489    4.4598    0.5431 Br      1  LIG1        0.0000
     15 C15        -0.0227    1.3814    0.0104 C.ar    1  LIG1        0.0000
     16 O16        -1.2011    2.0411    0.0271 O.3     1  LIG1        0.0000
     17 H          -1.1144   -1.7678   -0.0002 H       1  LIG1        0.0000
     18 H          -1.8298   -0.5582    0.8315 H       1  LIG1        0.0000
     19 H          -1.8458   -0.5471   -0.8013 H       1  LIG1        0.0000
     20 H           1.2225   -1.6884   -0.0231 H       1  LIG1        0.0000
     21 H           3.2765   -0.4657   -0.0355 H       1  LIG1        0.0000
     22 H           3.2448    1.9250   -0.0167 H       1  LIG1        0.0000
     23 H           2.0304    3.9597   -0.3141 H       1  LIG1        0.0000
     24 H           0.4197    3.9404   -0.5820 H       1  LIG1        0.0000
     25 H           2.8813    3.8507    2.0597 H       1  LIG1        0.0000
     26 H           2.4900    4.6294    4.2878 H       1  LIG1        0.0000
     27 H           0.3091    5.3336    4.9537 H       1  LIG1        0.0000
     28 H          -1.5021    5.2596    3.3922 H       1  LIG1        0.0000
     29 H          -2.0604    1.5296    0.0319 H       1  LIG1        0.0000
@<TRIPOS>BOND
     1     1     2    1
     2     2     3   ar
     3     3     4   ar
     4     4     5   ar
     5     5     6   ar
     6     6     7    1
     7     7     8    1
     8     8     9   ar
     9     9    10   ar
    10    10    11   ar
    11    11    12   ar
    12    12    13   ar
    13    13     8   ar
    14    13    14    1
    15     6    15   ar
    16    15     2   ar
    17    15    16    1
    18     1    17    1
    19     1    18    1
    20     1    19    1
    21     3    20    1
    22     4    21    1
    23     5    22    1
    24     7    23    1
    25     7    24    1
    26     9    25    1
    27    10    26    1
    28    11    27    1
    29    12    28    1
    30    16    29    1
