@<TRIPOS>MOLECULE

  44   46
SMALL
USER_CHARGES
@<TRIPOS>ATOM
   1 C1           0.8535     3.0559    -3.6813 C.3          1    LIG   0.0000
   2 C2           0.4533     2.7040    -2.2585 C.2          1    LIG   0.0000
   3 C3           1.1425     1.9220    -1.3794 C.2          1    LIG   0.0000
   4 C4           0.4576     1.8176    -0.1463 C.2          1    LIG   0.0000
   5 C5           1.0000     1.0000     1.0000 C.3          1    LIG   0.0000
   6 N6           1.8483     1.8483     1.8483 N.4          1    LIG   1.0000
   7 C7           2.4687     1.1231     2.9606 C.3          1    LIG   0.0000
   8 C8           3.9242     1.5431     3.0874 C.3          1    LIG   0.0000
   9 C9           4.3297     1.7122     4.5449 C.3          1    LIG   0.0000
  10 C10          3.8022     2.8663     2.3572 C.3          1    LIG   0.0000
  11 C11          3.0023     2.4311     1.1448 C.3          1    LIG   0.0000
  12 C12          3.7182     1.4289     0.2374 C.3          1    LIG   0.0000
  13 C13          4.7957     0.5821     0.9006 C.3          1    LIG   0.0000
  14 C14          4.7689    -0.8106     0.2832 C.3          1    LIG   0.0000
  15 C15          6.1131     1.2387     0.5151 C.3          1    LIG   0.0000
  16 C16          4.7325     0.4401     2.4199 C.3          1    LIG   0.0000
  17 C17         -0.7266     2.4644     0.0126 C.2          1    LIG   0.0000
  18 S18         -0.9674     3.2323    -1.4874 S.3          1    LIG   0.0000
  19 H            1.2905     2.5904     2.2201 H            1    LIG   0.0000
  20 H            2.7157     3.2303     0.6165 H            1    LIG   0.0000
  21 H            1.7286     2.6232    -3.8981 H            1    LIG   0.0000
  22 H            0.1533     2.7279    -4.3154 H            1    LIG   0.0000
  23 H            0.9421     4.0483    -3.7668 H            1    LIG   0.0000
  24 H            2.0171     1.4806    -1.5800 H            1    LIG   0.0000
  25 H            0.2403     0.6405     1.5419 H            1    LIG   0.0000
  26 H            1.5419     0.2403     0.6405 H            1    LIG   0.0000
  27 H            2.4191     0.1396     2.7867 H            1    LIG   0.0000
  28 H            1.9847     1.3364     3.8093 H            1    LIG   0.0000
  29 H            5.2896     1.9879     4.5939 H            1    LIG   0.0000
  30 H            3.7590     2.4146     4.9703 H            1    LIG   0.0000
  31 H            4.2067     0.8452     5.0278 H            1    LIG   0.0000
  32 H            4.6969     3.2308     2.0992 H            1    LIG   0.0000
  33 H            3.3099     3.5456     2.9014 H            1    LIG   0.0000
  34 H            3.0291     0.8088    -0.1378 H            1    LIG   0.0000
  35 H            4.1463     1.9412    -0.5071 H            1    LIG   0.0000
  36 H            4.8097    -0.7344    -0.7131 H            1    LIG   0.0000
  37 H            5.5550    -1.3353     0.6099 H            1    LIG   0.0000
  38 H            3.9243    -1.2762     0.5476 H            1    LIG   0.0000
  39 H            6.1596     1.3340    -0.4793 H            1    LIG   0.0000
  40 H            6.1721     2.1421     0.9397 H            1    LIG   0.0000
  41 H            6.8734     0.6713     0.8314 H            1    LIG   0.0000
  42 H            4.3129    -0.4404     2.6405 H            1    LIG   0.0000
  43 H            5.6646     0.4649     2.7813 H            1    LIG   0.0000
  44 H           -1.3169     2.4846     0.8195 H            1    LIG   0.0000
@<TRIPOS>BOND
   1        1        2 1
   2        2        3 2
   3        3        4 1
   4        4        5 1
   5        5        6 1
   6        6        7 1
   7        7        8 1
   8        8        9 1
   9        8       10 1
  10       10       11 1
  11       11        6 1
  12       11       12 1
  13       12       13 1
  14       13       14 1
  15       13       15 1
  16       13       16 1
  17       16        8 1
  18        4       17 2
  19       17       18 1
  20       18        2 1
  21        6       19 1
  22       11       20 1
  23        1       21 1
  24        1       22 1
  25        1       23 1
  26        3       24 1
  27        5       25 1
  28        5       26 1
  29        7       27 1
  30        7       28 1
  31        9       29 1
  32        9       30 1
  33        9       31 1
  34       10       32 1
  35       10       33 1
  36       12       34 1
  37       12       35 1
  38       14       36 1
  39       14       37 1
  40       14       38 1
  41       15       39 1
  42       15       40 1
  43       15       41 1
  44       16       42 1
  45       16       43 1
  46       17       44 1

@<TRIPOS>MOLECULE

  44   46
SMALL
USER_CHARGES
@<TRIPOS>ATOM
   1 C1          -2.2495     4.0625    -1.4949 C.3          1    LIG   0.0000
   2 C2          -1.0384     3.1923    -1.2043 C.2          1    LIG   0.0000
   3 C3          -0.7646     2.5228    -0.0484 C.2          1    LIG   0.0000
   4 C4           0.4576     1.8176    -0.1463 C.2          1    LIG   0.0000
   5 C5           1.0000     1.0000     1.0000 C.3          1    LIG   0.0000
   6 N6           1.8483     1.8483     1.8483 N.4          1    LIG   1.0000
   7 C7           2.4687     1.1231     2.9606 C.3          1    LIG   0.0000
   8 C8           3.9242     1.5431     3.0874 C.3          1    LIG   0.0000
   9 C9           4.3297     1.7122     4.5449 C.3          1    LIG   0.0000
  10 C10          3.8022     2.8663     2.3572 C.3          1    LIG   0.0000
  11 C11          3.0023     2.4311     1.1448 C.3          1    LIG   0.0000
  12 C12          3.7182     1.4289     0.2374 C.3          1    LIG   0.0000
  13 C13          4.7957     0.5821     0.9006 C.3          1    LIG   0.0000
  14 C14          4.7689    -0.8106     0.2832 C.3          1    LIG   0.0000
  15 C15          6.1131     1.2387     0.5151 C.3          1    LIG   0.0000
  16 C16          4.7325     0.4401     2.4199 C.3          1    LIG   0.0000
  17 C17          1.1704     1.8812    -1.3012 C.2          1    LIG   0.0000
  18 S18          0.2303     2.8929    -2.2963 S.3          1    LIG   0.0000
  19 H            1.2905     2.5904     2.2201 H            1    LIG   0.0000
  20 H            2.7157     3.2303     0.6165 H            1    LIG   0.0000
  21 H           -2.8482     4.0787    -0.6941 H            1    LIG   0.0000
  22 H           -1.9488     4.9928    -1.7051 H            1    LIG   0.0000
  23 H           -2.7485     3.6888    -2.2767 H            1    LIG   0.0000
  24 H           -1.3507     2.5295     0.7618 H            1    LIG   0.0000
  25 H            0.2403     0.6405     1.5419 H            1    LIG   0.0000
  26 H            1.5419     0.2403     0.6405 H            1    LIG   0.0000
  27 H            2.4191     0.1396     2.7867 H            1    LIG   0.0000
  28 H            1.9847     1.3364     3.8093 H            1    LIG   0.0000
  29 H            5.2896     1.9879     4.5939 H            1    LIG   0.0000
  30 H            3.7590     2.4146     4.9703 H            1    LIG   0.0000
  31 H            4.2067     0.8452     5.0278 H            1    LIG   0.0000
  32 H            4.6969     3.2308     2.0992 H            1    LIG   0.0000
  33 H            3.3099     3.5456     2.9014 H            1    LIG   0.0000
  34 H            3.0291     0.8088    -0.1378 H            1    LIG   0.0000
  35 H            4.1463     1.9412    -0.5071 H            1    LIG   0.0000
  36 H            4.8097    -0.7344    -0.7131 H            1    LIG   0.0000
  37 H            5.5550    -1.3353     0.6099 H            1    LIG   0.0000
  38 H            3.9243    -1.2762     0.5476 H            1    LIG   0.0000
  39 H            6.1596     1.3340    -0.4793 H            1    LIG   0.0000
  40 H            6.1721     2.1421     0.9397 H            1    LIG   0.0000
  41 H            6.8734     0.6713     0.8314 H            1    LIG   0.0000
  42 H            4.3129    -0.4404     2.6405 H            1    LIG   0.0000
  43 H            5.6646     0.4649     2.7813 H            1    LIG   0.0000
  44 H            2.0410     1.4385    -1.5157 H            1    LIG   0.0000
@<TRIPOS>BOND
   1        1        2 1
   2        2        3 2
   3        3        4 1
   4        4        5 1
   5        5        6 1
   6        6        7 1
   7        7        8 1
   8        8        9 1
   9        8       10 1
  10       10       11 1
  11       11        6 1
  12       11       12 1
  13       12       13 1
  14       13       14 1
  15       13       15 1
  16       13       16 1
  17       16        8 1
  18        4       17 2
  19       17       18 1
  20       18        2 1
  21        6       19 1
  22       11       20 1
  23        1       21 1
  24        1       22 1
  25        1       23 1
  26        3       24 1
  27        5       25 1
  28        5       26 1
  29        7       27 1
  30        7       28 1
  31        9       29 1
  32        9       30 1
  33        9       31 1
  34       10       32 1
  35       10       33 1
  36       12       34 1
  37       12       35 1
  38       14       36 1
  39       14       37 1
  40       14       38 1
  41       15       39 1
  42       15       40 1
  43       15       41 1
  44       16       42 1
  45       16       43 1
  46       17       44 1

@<TRIPOS>MOLECULE

  44   46
SMALL
USER_CHARGES
@<TRIPOS>ATOM
   1 C1          -1.6727     1.9875    -3.2478 C.3          1    LIG   0.0000
   2 C2          -0.7637     2.1921    -2.0477 C.2          1    LIG   0.0000
   3 C3          -0.3999     1.2588    -1.1226 C.2          1    LIG   0.0000
   4 C4           0.4576     1.8176    -0.1463 C.2          1    LIG   0.0000
   5 C5           1.0000     1.0000     1.0000 C.3          1    LIG   0.0000
   6 N6           1.8494     1.8494     1.8494 N.4          1    LIG   1.0000
   7 C7           1.9253     1.4509     3.2643 C.3          1    LIG   0.0000
   8 C8           3.3804     1.6462     3.6827 C.3          1    LIG   0.0000
   9 C9           3.4919     2.1096     5.1257 C.3          1    LIG   0.0000
  10 C10          3.7845     2.6949     2.6696 C.3          1    LIG   0.0000
  11 C11          3.2091     2.1019     1.4044 C.3          1    LIG   0.0000
  12 C12          3.8812     0.8247     0.9146 C.3          1    LIG   0.0000
  13 C13          4.3799    -0.0963     2.0328 C.3          1    LIG   0.0000
  14 C14          4.0211    -1.5398     1.7152 C.3          1    LIG   0.0000
  15 C15          5.9013    -0.0069     2.0096 C.3          1    LIG   0.0000
  16 C16          3.9841     0.2582     3.4671 C.3          1    LIG   0.0000
  17 C17          0.7994     3.1295    -0.2352 C.2          1    LIG   0.0000
  18 S18         -0.0204     3.6630    -1.6284 S.3          1    LIG   0.0000
  19 H            1.4042     2.7448     1.8528 H            1    LIG   0.0000
  20 H            3.2079     2.7874     0.6763 H            1    LIG   0.0000
  21 H           -1.9807     1.0365    -3.2744 H            1    LIG   0.0000
  22 H           -2.4653     2.5926    -3.1726 H            1    LIG   0.0000
  23 H           -1.1704     2.1988    -4.0863 H            1    LIG   0.0000
  24 H           -0.6997     0.3048    -1.1330 H            1    LIG   0.0000
  25 H            0.2403     0.6405     1.5419 H            1    LIG   0.0000
  26 H            1.5419     0.2403     0.6405 H            1    LIG   0.0000
  27 H            1.6597     0.4926     3.3696 H            1    LIG   0.0000
  28 H            1.3245     2.0262     3.8194 H            1    LIG   0.0000
  29 H            4.4558     2.2268     5.3647 H            1    LIG   0.0000
  30 H            3.0133     2.9809     5.2340 H            1    LIG   0.0000
  31 H            3.0799     1.4259     5.7281 H            1    LIG   0.0000
  32 H            4.7785     2.7886     2.6133 H            1    LIG   0.0000
  33 H            3.3772     3.5841     2.8778 H            1    LIG   0.0000
  34 H            3.2212     0.3162     0.3615 H            1    LIG   0.0000
  35 H            4.6641     1.0808     0.3477 H            1    LIG   0.0000
  36 H            4.2878    -1.7504     0.7747 H            1    LIG   0.0000
  37 H            4.5048    -2.1494     2.3433 H            1    LIG   0.0000
  38 H            3.0349    -1.6687     1.8188 H            1    LIG   0.0000
  39 H            6.2343    -0.2284     1.0930 H            1    LIG   0.0000
  40 H            6.1844     0.9211     2.2518 H            1    LIG   0.0000
  41 H            6.2834    -0.6547     2.6686 H            1    LIG   0.0000
  42 H            3.3123    -0.4165     3.7729 H            1    LIG   0.0000
  43 H            4.8050     0.1921     4.0344 H            1    LIG   0.0000
  44 H            1.3921     3.6568     0.3736 H            1    LIG   0.0000
@<TRIPOS>BOND
   1        1        2 1
   2        2        3 2
   3        3        4 1
   4        4        5 1
   5        5        6 1
   6        6        7 1
   7        7        8 1
   8        8        9 1
   9        8       10 1
  10       10       11 1
  11       11        6 1
  12       11       12 1
  13       12       13 1
  14       13       14 1
  15       13       15 1
  16       13       16 1
  17       16        8 1
  18        4       17 2
  19       17       18 1
  20       18        2 1
  21        6       19 1
  22       11       20 1
  23        1       21 1
  24        1       22 1
  25        1       23 1
  26        3       24 1
  27        5       25 1
  28        5       26 1
  29        7       27 1
  30        7       28 1
  31        9       29 1
  32        9       30 1
  33        9       31 1
  34       10       32 1
  35       10       33 1
  36       12       34 1
  37       12       35 1
  38       14       36 1
  39       14       37 1
  40       14       38 1
  41       15       39 1
  42       15       40 1
  43       15       41 1
  44       16       42 1
  45       16       43 1
  46       17       44 1

@<TRIPOS>MOLECULE

  44   46
SMALL
USER_CHARGES
@<TRIPOS>ATOM
   1 C1           0.2767     5.1309    -1.9283 C.3          1    LIG   0.0000
   2 C2           0.1786     3.7043    -1.4150 C.2          1    LIG   0.0000
   3 C3           0.7778     3.1861    -0.3052 C.2          1    LIG   0.0000
   4 C4           0.4576     1.8176    -0.1463 C.2          1    LIG   0.0000
   5 C5           1.0000     1.0000     1.0000 C.3          1    LIG   0.0000
   6 N6           1.8494     1.8494     1.8494 N.4          1    LIG   1.0000
   7 C7           1.9253     1.4509     3.2643 C.3          1    LIG   0.0000
   8 C8           3.3804     1.6462     3.6827 C.3          1    LIG   0.0000
   9 C9           3.4919     2.1096     5.1257 C.3          1    LIG   0.0000
  10 C10          3.7845     2.6949     2.6696 C.3          1    LIG   0.0000
  11 C11          3.2091     2.1019     1.4044 C.3          1    LIG   0.0000
  12 C12          3.8812     0.8247     0.9146 C.3          1    LIG   0.0000
  13 C13          4.3799    -0.0963     2.0328 C.3          1    LIG   0.0000
  14 C14          4.0211    -1.5398     1.7152 C.3          1    LIG   0.0000
  15 C15          5.9013    -0.0069     2.0096 C.3          1    LIG   0.0000
  16 C16          3.9841     0.2582     3.4671 C.3          1    LIG   0.0000
  17 C17         -0.3556     1.2161    -1.0534 C.2          1    LIG   0.0000
  18 S18         -0.7166     2.4623    -2.1554 S.3          1    LIG   0.0000
  19 H            1.4042     2.7448     1.8528 H            1    LIG   0.0000
  20 H            3.2079     2.7874     0.6763 H            1    LIG   0.0000
  21 H            0.8611     5.6654    -1.3177 H            1    LIG   0.0000
  22 H            0.6698     5.1280    -2.8478 H            1    LIG   0.0000
  23 H           -0.6360     5.5383    -1.9572 H            1    LIG   0.0000
  24 H            1.3661     3.7053     0.3148 H            1    LIG   0.0000
  25 H            0.2403     0.6405     1.5419 H            1    LIG   0.0000
  26 H            1.5419     0.2403     0.6405 H            1    LIG   0.0000
  27 H            1.6597     0.4926     3.3696 H            1    LIG   0.0000
  28 H            1.3245     2.0262     3.8194 H            1    LIG   0.0000
  29 H            4.4558     2.2268     5.3647 H            1    LIG   0.0000
  30 H            3.0133     2.9809     5.2340 H            1    LIG   0.0000
  31 H            3.0799     1.4259     5.7281 H            1    LIG   0.0000
  32 H            4.7785     2.7886     2.6133 H            1    LIG   0.0000
  33 H            3.3772     3.5841     2.8778 H            1    LIG   0.0000
  34 H            3.2212     0.3162     0.3615 H            1    LIG   0.0000
  35 H            4.6641     1.0808     0.3477 H            1    LIG   0.0000
  36 H            4.2878    -1.7504     0.7747 H            1    LIG   0.0000
  37 H            4.5048    -2.1494     2.3433 H            1    LIG   0.0000
  38 H            3.0349    -1.6687     1.8188 H            1    LIG   0.0000
  39 H            6.2343    -0.2284     1.0930 H            1    LIG   0.0000
  40 H            6.1844     0.9211     2.2518 H            1    LIG   0.0000
  41 H            6.2834    -0.6547     2.6686 H            1    LIG   0.0000
  42 H            3.3123    -0.4165     3.7729 H            1    LIG   0.0000
  43 H            4.8050     0.1921     4.0344 H            1    LIG   0.0000
  44 H           -0.6680     0.2663    -1.0698 H            1    LIG   0.0000
@<TRIPOS>BOND
   1        1        2 1
   2        2        3 2
   3        3        4 1
   4        4        5 1
   5        5        6 1
   6        6        7 1
   7        7        8 1
   8        8        9 1
   9        8       10 1
  10       10       11 1
  11       11        6 1
  12       11       12 1
  13       12       13 1
  14       13       14 1
  15       13       15 1
  16       13       16 1
  17       16        8 1
  18        4       17 2
  19       17       18 1
  20       18        2 1
  21        6       19 1
  22       11       20 1
  23        1       21 1
  24        1       22 1
  25        1       23 1
  26        3       24 1
  27        5       25 1
  28        5       26 1
  29        7       27 1
  30        7       28 1
  31        9       29 1
  32        9       30 1
  33        9       31 1
  34       10       32 1
  35       10       33 1
  36       12       34 1
  37       12       35 1
  38       14       36 1
  39       14       37 1
  40       14       38 1
  41       15       39 1
  42       15       40 1
  43       15       41 1
  44       16       42 1
  45       16       43 1
  46       17       44 1

@<TRIPOS>MOLECULE

  44   46
SMALL
USER_CHARGES
@<TRIPOS>ATOM
   1 C1           0.8535     3.0559    -3.6813 C.3          1    LIG   0.0000
   2 C2           0.4533     2.7040    -2.2585 C.2          1    LIG   0.0000
   3 C3           1.1425     1.9220    -1.3794 C.2          1    LIG   0.0000
   4 C4           0.4576     1.8176    -0.1463 C.2          1    LIG   0.0000
   5 C5           1.0000     1.0000     1.0000 C.3          1    LIG   0.0000
   6 N6           1.8512     1.8512     1.8512 N.4          1    LIG   1.0000
   7 C7           1.1097     3.0073     2.3576 C.3          1    LIG   0.0000
   8 C8           2.1896     4.0564     2.4694 C.3          1    LIG   0.0000
   9 C9           1.6234     5.4393     2.7220 C.3          1    LIG   0.0000
  10 C10          2.7378     3.8950     1.0728 C.3          1    LIG   0.0000
  11 C11          2.9879     2.4110     1.1116 C.3          1    LIG   0.0000
  12 C12          4.1058     1.9118     2.0145 C.3          1    LIG   0.0000
  13 C13          4.1834     2.7547     3.2818 C.3          1    LIG   0.0000
  14 C14          4.5985     1.8690     4.4412 C.3          1    LIG   0.0000
  15 C15          5.2896     3.7833     3.1078 C.3          1    LIG   0.0000
  16 C16          2.9127     3.4931     3.6832 C.3          1    LIG   0.0000
  17 C17         -0.7266     2.4644     0.0126 C.2          1    LIG   0.0000
  18 S18         -0.9674     3.2323    -1.4874 S.3          1    LIG   0.0000
  19 H            2.1913     1.3129     2.6223 H            1    LIG   0.0000
  20 H            3.0560     2.0242     0.1919 H            1    LIG   0.0000
  21 H            1.7286     2.6232    -3.8981 H            1    LIG   0.0000
  22 H            0.1533     2.7279    -4.3154 H            1    LIG   0.0000
  23 H            0.9421     4.0483    -3.7668 H            1    LIG   0.0000
  24 H            2.0171     1.4806    -1.5800 H            1    LIG   0.0000
  25 H            0.2403     0.6405     1.5419 H            1    LIG   0.0000
  26 H            1.5419     0.2403     0.6405 H            1    LIG   0.0000
  27 H            0.6997     2.8129     3.2487 H            1    LIG   0.0000
  28 H            0.3958     3.2890     1.7165 H            1    LIG   0.0000
  29 H            2.3720     6.0989     2.7886 H            1    LIG   0.0000
  30 H            1.0197     5.6953     1.9669 H            1    LIG   0.0000
  31 H            1.1048     5.4361     3.5770 H            1    LIG   0.0000
  32 H            3.5796     4.4168     0.9344 H            1    LIG   0.0000
  33 H            2.0700     4.1478     0.3728 H            1    LIG   0.0000
  34 H            3.9282     0.9595     2.2628 H            1    LIG   0.0000
  35 H            4.9759     1.9719     1.5253 H            1    LIG   0.0000
  36 H            5.4328     1.3732     4.1999 H            1    LIG   0.0000
  37 H            4.7684     2.4344     5.2484 H            1    LIG   0.0000
  38 H            3.8681     1.2156     4.6397 H            1    LIG   0.0000
  39 H            6.1360     3.3211     2.8436 H            1    LIG   0.0000
  40 H            5.0294     4.4353     2.3955 H            1    LIG   0.0000
  41 H            5.4307     4.2701     3.9698 H            1    LIG   0.0000
  42 H            2.3039     2.8578     4.1584 H            1    LIG   0.0000
  43 H            3.1537     4.2455     4.2962 H            1    LIG   0.0000
  44 H           -1.3169     2.4846     0.8195 H            1    LIG   0.0000
@<TRIPOS>BOND
   1        1        2 1
   2        2        3 2
   3        3        4 1
   4        4        5 1
   5        5        6 1
   6        6        7 1
   7        7        8 1
   8        8        9 1
   9        8       10 1
  10       10       11 1
  11       11        6 1
  12       11       12 1
  13       12       13 1
  14       13       14 1
  15       13       15 1
  16       13       16 1
  17       16        8 1
  18        4       17 2
  19       17       18 1
  20       18        2 1
  21        6       19 1
  22       11       20 1
  23        1       21 1
  24        1       22 1
  25        1       23 1
  26        3       24 1
  27        5       25 1
  28        5       26 1
  29        7       27 1
  30        7       28 1
  31        9       29 1
  32        9       30 1
  33        9       31 1
  34       10       32 1
  35       10       33 1
  36       12       34 1
  37       12       35 1
  38       14       36 1
  39       14       37 1
  40       14       38 1
  41       15       39 1
  42       15       40 1
  43       15       41 1
  44       16       42 1
  45       16       43 1
  46       17       44 1

@<TRIPOS>MOLECULE

  44   46
SMALL
USER_CHARGES
@<TRIPOS>ATOM
   1 C1          -2.2495     4.0625    -1.4949 C.3          1    LIG   0.0000
   2 C2          -1.0384     3.1923    -1.2043 C.2          1    LIG   0.0000
   3 C3          -0.7646     2.5228    -0.0484 C.2          1    LIG   0.0000
   4 C4           0.4576     1.8176    -0.1463 C.2          1    LIG   0.0000
   5 C5           1.0000     1.0000     1.0000 C.3          1    LIG   0.0000
   6 N6           1.8512     1.8512     1.8512 N.4          1    LIG   1.0000
   7 C7           1.1097     3.0073     2.3576 C.3          1    LIG   0.0000
   8 C8           2.1896     4.0564     2.4694 C.3          1    LIG   0.0000
   9 C9           1.6234     5.4393     2.7220 C.3          1    LIG   0.0000
  10 C10          2.7378     3.8950     1.0728 C.3          1    LIG   0.0000
  11 C11          2.9879     2.4110     1.1116 C.3          1    LIG   0.0000
  12 C12          4.1058     1.9118     2.0145 C.3          1    LIG   0.0000
  13 C13          4.1834     2.7547     3.2818 C.3          1    LIG   0.0000
  14 C14          4.5985     1.8690     4.4412 C.3          1    LIG   0.0000
  15 C15          5.2896     3.7833     3.1078 C.3          1    LIG   0.0000
  16 C16          2.9127     3.4931     3.6832 C.3          1    LIG   0.0000
  17 C17          1.1704     1.8812    -1.3012 C.2          1    LIG   0.0000
  18 S18          0.2303     2.8929    -2.2963 S.3          1    LIG   0.0000
  19 H            2.1913     1.3129     2.6223 H            1    LIG   0.0000
  20 H            3.0560     2.0242     0.1919 H            1    LIG   0.0000
  21 H           -2.8482     4.0787    -0.6941 H            1    LIG   0.0000
  22 H           -1.9488     4.9928    -1.7051 H            1    LIG   0.0000
  23 H           -2.7485     3.6888    -2.2767 H            1    LIG   0.0000
  24 H           -1.3507     2.5295     0.7618 H            1    LIG   0.0000
  25 H            0.2403     0.6405     1.5419 H            1    LIG   0.0000
  26 H            1.5419     0.2403     0.6405 H            1    LIG   0.0000
  27 H            0.6997     2.8129     3.2487 H            1    LIG   0.0000
  28 H            0.3958     3.2890     1.7165 H            1    LIG   0.0000
  29 H            2.3720     6.0989     2.7886 H            1    LIG   0.0000
  30 H            1.0197     5.6953     1.9669 H            1    LIG   0.0000
  31 H            1.1048     5.4361     3.5770 H            1    LIG   0.0000
  32 H            3.5796     4.4168     0.9344 H            1    LIG   0.0000
  33 H            2.0700     4.1478     0.3728 H            1    LIG   0.0000
  34 H            3.9282     0.9595     2.2628 H            1    LIG   0.0000
  35 H            4.9759     1.9719     1.5253 H            1    LIG   0.0000
  36 H            5.4328     1.3732     4.1999 H            1    LIG   0.0000
  37 H            4.7684     2.4344     5.2484 H            1    LIG   0.0000
  38 H            3.8681     1.2156     4.6397 H            1    LIG   0.0000
  39 H            6.1360     3.3211     2.8436 H            1    LIG   0.0000
  40 H            5.0294     4.4353     2.3955 H            1    LIG   0.0000
  41 H            5.4307     4.2701     3.9698 H            1    LIG   0.0000
  42 H            2.3039     2.8578     4.1584 H            1    LIG   0.0000
  43 H            3.1537     4.2455     4.2962 H            1    LIG   0.0000
  44 H            2.0410     1.4385    -1.5157 H            1    LIG   0.0000
@<TRIPOS>BOND
   1        1        2 1
   2        2        3 2
   3        3        4 1
   4        4        5 1
   5        5        6 1
   6        6        7 1
   7        7        8 1
   8        8        9 1
   9        8       10 1
  10       10       11 1
  11       11        6 1
  12       11       12 1
  13       12       13 1
  14       13       14 1
  15       13       15 1
  16       13       16 1
  17       16        8 1
  18        4       17 2
  19       17       18 1
  20       18        2 1
  21        6       19 1
  22       11       20 1
  23        1       21 1
  24        1       22 1
  25        1       23 1
  26        3       24 1
  27        5       25 1
  28        5       26 1
  29        7       27 1
  30        7       28 1
  31        9       29 1
  32        9       30 1
  33        9       31 1
  34       10       32 1
  35       10       33 1
  36       12       34 1
  37       12       35 1
  38       14       36 1
  39       14       37 1
  40       14       38 1
  41       15       39 1
  42       15       40 1
  43       15       41 1
  44       16       42 1
  45       16       43 1
  46       17       44 1

@<TRIPOS>MOLECULE

  44   46
SMALL
USER_CHARGES
@<TRIPOS>ATOM
   1 C1           0.8535     3.0559    -3.6813 C.3          1    LIG   0.0000
   2 C2           0.4533     2.7040    -2.2585 C.2          1    LIG   0.0000
   3 C3           1.1425     1.9220    -1.3794 C.2          1    LIG   0.0000
   4 C4           0.4576     1.8176    -0.1463 C.2          1    LIG   0.0000
   5 C5           1.0000     1.0000     1.0000 C.3          1    LIG   0.0000
   6 N6           1.8512     1.8512     1.8512 N.4          1    LIG   1.0000
   7 C7           1.3091     1.9588     3.2067 C.3          1    LIG   0.0000
   8 C8           1.7538     3.3408     3.6207 C.3          1    LIG   0.0000
   9 C9           1.0838     3.8011     4.8997 C.3          1    LIG   0.0000
  10 C10          1.2421     4.0643     2.3992 C.3          1    LIG   0.0000
  11 C11          1.9293     3.2287     1.3524 C.3          1    LIG   0.0000
  12 C12          3.4430     3.3402     1.2489 C.3          1    LIG   0.0000
  13 C13          4.0586     3.5315     2.6299 C.3          1    LIG   0.0000
  14 C14          5.4035     2.8313     2.6740 C.3          1    LIG   0.0000
  15 C15          4.3371     5.0127     2.8309 C.3          1    LIG   0.0000
  16 C16          3.2329     3.0428     3.8133 C.3          1    LIG   0.0000
  17 C17         -0.7266     2.4644     0.0126 C.2          1    LIG   0.0000
  18 S18         -0.9674     3.2323    -1.4874 S.3          1    LIG   0.0000
  19 H            2.7714     1.4620     1.8930 H            1    LIG   0.0000
  20 H            1.4906     3.3228     0.4588 H            1    LIG   0.0000
  21 H            1.7286     2.6232    -3.8981 H            1    LIG   0.0000
  22 H            0.1533     2.7279    -4.3154 H            1    LIG   0.0000
  23 H            0.9421     4.0483    -3.7668 H            1    LIG   0.0000
  24 H            2.0171     1.4806    -1.5800 H            1    LIG   0.0000
  25 H            0.2403     0.6405     1.5419 H            1    LIG   0.0000
  26 H            1.5419     0.2403     0.6405 H            1    LIG   0.0000
  27 H            1.6946     1.2588     3.8078 H            1    LIG   0.0000
  28 H            0.3118     1.8843     3.2051 H            1    LIG   0.0000
  29 H            1.4074     4.7177     5.1343 H            1    LIG   0.0000
  30 H            0.0927     3.8210     4.7683 H            1    LIG   0.0000
  31 H            1.3092     3.1683     5.6404 H            1    LIG   0.0000
  32 H            1.5370     5.0195     2.3742 H            1    LIG   0.0000
  33 H            0.2459     4.0209     2.3237 H            1    LIG   0.0000
  34 H            3.8075     2.5042     0.8388 H            1    LIG   0.0000
  35 H            3.6768     4.1234     0.6728 H            1    LIG   0.0000
  36 H            5.9641     3.1374     1.9045 H            1    LIG   0.0000
  37 H            5.8664     3.0524     3.5324 H            1    LIG   0.0000
  38 H            5.2666     1.8425     2.6142 H            1    LIG   0.0000
  39 H            4.8794     5.3569     2.0644 H            1    LIG   0.0000
  40 H            3.4716     5.5113     2.8774 H            1    LIG   0.0000
  41 H            4.8436     5.1439     3.6831 H            1    LIG   0.0000
  42 H            3.3556     2.0550     3.9095 H            1    LIG   0.0000
  43 H            3.5514     3.5007     4.6432 H            1    LIG   0.0000
  44 H           -1.3169     2.4846     0.8195 H            1    LIG   0.0000
@<TRIPOS>BOND
   1        1        2 1
   2        2        3 2
   3        3        4 1
   4        4        5 1
   5        5        6 1
   6        6        7 1
   7        7        8 1
   8        8        9 1
   9        8       10 1
  10       10       11 1
  11       11        6 1
  12       11       12 1
  13       12       13 1
  14       13       14 1
  15       13       15 1
  16       13       16 1
  17       16        8 1
  18        4       17 2
  19       17       18 1
  20       18        2 1
  21        6       19 1
  22       11       20 1
  23        1       21 1
  24        1       22 1
  25        1       23 1
  26        3       24 1
  27        5       25 1
  28        5       26 1
  29        7       27 1
  30        7       28 1
  31        9       29 1
  32        9       30 1
  33        9       31 1
  34       10       32 1
  35       10       33 1
  36       12       34 1
  37       12       35 1
  38       14       36 1
  39       14       37 1
  40       14       38 1
  41       15       39 1
  42       15       40 1
  43       15       41 1
  44       16       42 1
  45       16       43 1
  46       17       44 1

@<TRIPOS>MOLECULE

  44   46
SMALL
USER_CHARGES
@<TRIPOS>ATOM
   1 C1          -2.2495     4.0625    -1.4949 C.3          1    LIG   0.0000
   2 C2          -1.0384     3.1923    -1.2043 C.2          1    LIG   0.0000
   3 C3          -0.7646     2.5228    -0.0484 C.2          1    LIG   0.0000
   4 C4           0.4576     1.8176    -0.1463 C.2          1    LIG   0.0000
   5 C5           1.0000     1.0000     1.0000 C.3          1    LIG   0.0000
   6 N6           1.8512     1.8512     1.8512 N.4          1    LIG   1.0000
   7 C7           1.3091     1.9588     3.2067 C.3          1    LIG   0.0000
   8 C8           1.7538     3.3408     3.6207 C.3          1    LIG   0.0000
   9 C9           1.0838     3.8011     4.8997 C.3          1    LIG   0.0000
  10 C10          1.2421     4.0643     2.3992 C.3          1    LIG   0.0000
  11 C11          1.9293     3.2287     1.3524 C.3          1    LIG   0.0000
  12 C12          3.4430     3.3402     1.2489 C.3          1    LIG   0.0000
  13 C13          4.0586     3.5315     2.6299 C.3          1    LIG   0.0000
  14 C14          5.4035     2.8313     2.6740 C.3          1    LIG   0.0000
  15 C15          4.3371     5.0127     2.8309 C.3          1    LIG   0.0000
  16 C16          3.2329     3.0428     3.8133 C.3          1    LIG   0.0000
  17 C17          1.1704     1.8812    -1.3012 C.2          1    LIG   0.0000
  18 S18          0.2303     2.8929    -2.2963 S.3          1    LIG   0.0000
  19 H            2.7714     1.4620     1.8930 H            1    LIG   0.0000
  20 H            1.4906     3.3228     0.4588 H            1    LIG   0.0000
  21 H           -2.8482     4.0787    -0.6941 H            1    LIG   0.0000
  22 H           -1.9488     4.9928    -1.7051 H            1    LIG   0.0000
  23 H           -2.7485     3.6888    -2.2767 H            1    LIG   0.0000
  24 H           -1.3507     2.5295     0.7618 H            1    LIG   0.0000
  25 H            0.2403     0.6405     1.5419 H            1    LIG   0.0000
  26 H            1.5419     0.2403     0.6405 H            1    LIG   0.0000
  27 H            1.6946     1.2588     3.8078 H            1    LIG   0.0000
  28 H            0.3118     1.8843     3.2051 H            1    LIG   0.0000
  29 H            1.4074     4.7177     5.1343 H            1    LIG   0.0000
  30 H            0.0927     3.8210     4.7683 H            1    LIG   0.0000
  31 H            1.3092     3.1683     5.6404 H            1    LIG   0.0000
  32 H            1.5370     5.0195     2.3742 H            1    LIG   0.0000
  33 H            0.2459     4.0209     2.3237 H            1    LIG   0.0000
  34 H            3.8075     2.5042     0.8388 H            1    LIG   0.0000
  35 H            3.6768     4.1234     0.6728 H            1    LIG   0.0000
  36 H            5.9641     3.1374     1.9045 H            1    LIG   0.0000
  37 H            5.8664     3.0524     3.5324 H            1    LIG   0.0000
  38 H            5.2666     1.8425     2.6142 H            1    LIG   0.0000
  39 H            4.8794     5.3569     2.0644 H            1    LIG   0.0000
  40 H            3.4716     5.5113     2.8774 H            1    LIG   0.0000
  41 H            4.8436     5.1439     3.6831 H            1    LIG   0.0000
  42 H            3.3556     2.0550     3.9095 H            1    LIG   0.0000
  43 H            3.5514     3.5007     4.6432 H            1    LIG   0.0000
  44 H            2.0410     1.4385    -1.5157 H            1    LIG   0.0000
@<TRIPOS>BOND
   1        1        2 1
   2        2        3 2
   3        3        4 1
   4        4        5 1
   5        5        6 1
   6        6        7 1
   7        7        8 1
   8        8        9 1
   9        8       10 1
  10       10       11 1
  11       11        6 1
  12       11       12 1
  13       12       13 1
  14       13       14 1
  15       13       15 1
  16       13       16 1
  17       16        8 1
  18        4       17 2
  19       17       18 1
  20       18        2 1
  21        6       19 1
  22       11       20 1
  23        1       21 1
  24        1       22 1
  25        1       23 1
  26        3       24 1
  27        5       25 1
  28        5       26 1
  29        7       27 1
  30        7       28 1
  31        9       29 1
  32        9       30 1
  33        9       31 1
  34       10       32 1
  35       10       33 1
  36       12       34 1
  37       12       35 1
  38       14       36 1
  39       14       37 1
  40       14       38 1
  41       15       39 1
  42       15       40 1
  43       15       41 1
  44       16       42 1
  45       16       43 1
  46       17       44 1

@<TRIPOS>MOLECULE

  44   46
SMALL
USER_CHARGES
@<TRIPOS>ATOM
   1 C1           0.8535     3.0559    -3.6813 C.3          1    LIG   0.0000
   2 C2           0.4533     2.7040    -2.2585 C.2          1    LIG   0.0000
   3 C3           1.1425     1.9220    -1.3794 C.2          1    LIG   0.0000
   4 C4           0.4576     1.8176    -0.1463 C.2          1    LIG   0.0000
   5 C5           1.0000     1.0000     1.0000 C.3          1    LIG   0.0000
   6 N6           1.8485     1.8485     1.8485 N.4          1    LIG   1.0000
   7 C7           1.1724     2.9711     2.5055 C.3          1    LIG   0.0000
   8 C8           2.3344     3.8960     2.7779 C.3          1    LIG   0.0000
   9 C9           1.8621     5.2623     3.2485 C.3          1    LIG   0.0000
  10 C10          2.7007     3.9071     1.3168 C.3          1    LIG   0.0000
  11 C11          3.0019     2.4378     1.1672 C.3          1    LIG   0.0000
  12 C12          4.2269     1.9907     1.9569 C.3          1    LIG   0.0000
  13 C13          4.0570     2.1073     3.4673 C.3          1    LIG   0.0000
  14 C14          5.4264     1.8780     4.0841 C.3          1    LIG   0.0000
  15 C15          3.1861     1.0396     4.1220 C.3          1    LIG   0.0000
  16 C16          3.5342     3.5330     3.6532 C.3          1    LIG   0.0000
  17 C17         -0.7266     2.4644     0.0126 C.2          1    LIG   0.0000
  18 S18         -0.9674     3.2323    -1.4874 S.3          1    LIG   0.0000
  19 H            2.2092     1.2629     2.5744 H            1    LIG   0.0000
  20 H            3.0526     2.1610     0.2076 H            1    LIG   0.0000
  21 H            1.7286     2.6232    -3.8981 H            1    LIG   0.0000
  22 H            0.1533     2.7279    -4.3154 H            1    LIG   0.0000
  23 H            0.9421     4.0483    -3.7668 H            1    LIG   0.0000
  24 H            2.0171     1.4806    -1.5800 H            1    LIG   0.0000
  25 H            0.2403     0.6405     1.5419 H            1    LIG   0.0000
  26 H            1.5419     0.2403     0.6405 H            1    LIG   0.0000
  27 H            0.7259     2.6844     3.3531 H            1    LIG   0.0000
  28 H            0.4988     3.3972     1.9016 H            1    LIG   0.0000
  29 H            2.6542     5.8482     3.4193 H            1    LIG   0.0000
  30 H            1.2865     5.6769     2.5436 H            1    LIG   0.0000
  31 H            1.3347     5.1603     4.0920 H            1    LIG   0.0000
  32 H            3.4998     4.4788     1.1306 H            1    LIG   0.0000
  33 H            1.9397     4.1991     0.7374 H            1    LIG   0.0000
  34 H            4.4153     1.0345     1.7331 H            1    LIG   0.0000
  35 H            5.0040     2.5568     1.6818 H            1    LIG   0.0000
  36 H            5.7081     0.9314     3.9277 H            1    LIG   0.0000
  37 H            6.0894     2.4970     3.6630 H            1    LIG   0.0000
  38 H            5.3829     2.0548     5.0673 H            1    LIG   0.0000
  39 H            3.5866     0.1376     3.9605 H            1    LIG   0.0000
  40 H            3.1334     1.2096     5.1060 H            1    LIG   0.0000
  41 H            2.2672     1.0716     3.7286 H            1    LIG   0.0000
  42 H            3.2657     3.6434     4.6102 H            1    LIG   0.0000
  43 H            4.2776     4.1670     3.4403 H            1    LIG   0.0000
  44 H           -1.3169     2.4846     0.8195 H            1    LIG   0.0000
@<TRIPOS>BOND
   1        1        2 1
   2        2        3 2
   3        3        4 1
   4        4        5 1
   5        5        6 1
   6        6        7 1
   7        7        8 1
   8        8        9 1
   9        8       10 1
  10       10       11 1
  11       11        6 1
  12       11       12 1
  13       12       13 1
  14       13       14 1
  15       13       15 1
  16       13       16 1
  17       16        8 1
  18        4       17 2
  19       17       18 1
  20       18        2 1
  21        6       19 1
  22       11       20 1
  23        1       21 1
  24        1       22 1
  25        1       23 1
  26        3       24 1
  27        5       25 1
  28        5       26 1
  29        7       27 1
  30        7       28 1
  31        9       29 1
  32        9       30 1
  33        9       31 1
  34       10       32 1
  35       10       33 1
  36       12       34 1
  37       12       35 1
  38       14       36 1
  39       14       37 1
  40       14       38 1
  41       15       39 1
  42       15       40 1
  43       15       41 1
  44       16       42 1
  45       16       43 1
  46       17       44 1

@<TRIPOS>MOLECULE

  44   46
SMALL
USER_CHARGES
@<TRIPOS>ATOM
   1 C1          -2.2495     4.0625    -1.4949 C.3          1    LIG   0.0000
   2 C2          -1.0384     3.1923    -1.2043 C.2          1    LIG   0.0000
   3 C3          -0.7646     2.5228    -0.0484 C.2          1    LIG   0.0000
   4 C4           0.4576     1.8176    -0.1463 C.2          1    LIG   0.0000
   5 C5           1.0000     1.0000     1.0000 C.3          1    LIG   0.0000
   6 N6           1.8485     1.8485     1.8485 N.4          1    LIG   1.0000
   7 C7           1.1724     2.9711     2.5055 C.3          1    LIG   0.0000
   8 C8           2.3344     3.8960     2.7779 C.3          1    LIG   0.0000
   9 C9           1.8621     5.2623     3.2485 C.3          1    LIG   0.0000
  10 C10          2.7007     3.9071     1.3168 C.3          1    LIG   0.0000
  11 C11          3.0019     2.4378     1.1672 C.3          1    LIG   0.0000
  12 C12          4.2269     1.9907     1.9569 C.3          1    LIG   0.0000
  13 C13          4.0570     2.1073     3.4673 C.3          1    LIG   0.0000
  14 C14          5.4264     1.8780     4.0841 C.3          1    LIG   0.0000
  15 C15          3.1861     1.0396     4.1220 C.3          1    LIG   0.0000
  16 C16          3.5342     3.5330     3.6532 C.3          1    LIG   0.0000
  17 C17          1.1704     1.8812    -1.3012 C.2          1    LIG   0.0000
  18 S18          0.2303     2.8929    -2.2963 S.3          1    LIG   0.0000
  19 H            2.2092     1.2629     2.5744 H            1    LIG   0.0000
  20 H            3.0526     2.1610     0.2076 H            1    LIG   0.0000
  21 H           -2.8482     4.0787    -0.6941 H            1    LIG   0.0000
  22 H           -1.9488     4.9928    -1.7051 H            1    LIG   0.0000
  23 H           -2.7485     3.6888    -2.2767 H            1    LIG   0.0000
  24 H           -1.3507     2.5295     0.7618 H            1    LIG   0.0000
  25 H            0.2403     0.6405     1.5419 H            1    LIG   0.0000
  26 H            1.5419     0.2403     0.6405 H            1    LIG   0.0000
  27 H            0.7259     2.6844     3.3531 H            1    LIG   0.0000
  28 H            0.4988     3.3972     1.9016 H            1    LIG   0.0000
  29 H            2.6542     5.8482     3.4193 H            1    LIG   0.0000
  30 H            1.2865     5.6769     2.5436 H            1    LIG   0.0000
  31 H            1.3347     5.1603     4.0920 H            1    LIG   0.0000
  32 H            3.4998     4.4788     1.1306 H            1    LIG   0.0000
  33 H            1.9397     4.1991     0.7374 H            1    LIG   0.0000
  34 H            4.4153     1.0345     1.7331 H            1    LIG   0.0000
  35 H            5.0040     2.5568     1.6818 H            1    LIG   0.0000
  36 H            5.7081     0.9314     3.9277 H            1    LIG   0.0000
  37 H            6.0894     2.4970     3.6630 H            1    LIG   0.0000
  38 H            5.3829     2.0548     5.0673 H            1    LIG   0.0000
  39 H            3.5866     0.1376     3.9605 H            1    LIG   0.0000
  40 H            3.1334     1.2096     5.1060 H            1    LIG   0.0000
  41 H            2.2672     1.0716     3.7286 H            1    LIG   0.0000
  42 H            3.2657     3.6434     4.6102 H            1    LIG   0.0000
  43 H            4.2776     4.1670     3.4403 H            1    LIG   0.0000
  44 H            2.0410     1.4385    -1.5157 H            1    LIG   0.0000
@<TRIPOS>BOND
   1        1        2 1
   2        2        3 2
   3        3        4 1
   4        4        5 1
   5        5        6 1
   6        6        7 1
   7        7        8 1
   8        8        9 1
   9        8       10 1
  10       10       11 1
  11       11        6 1
  12       11       12 1
  13       12       13 1
  14       13       14 1
  15       13       15 1
  16       13       16 1
  17       16        8 1
  18        4       17 2
  19       17       18 1
  20       18        2 1
  21        6       19 1
  22       11       20 1
  23        1       21 1
  24        1       22 1
  25        1       23 1
  26        3       24 1
  27        5       25 1
  28        5       26 1
  29        7       27 1
  30        7       28 1
  31        9       29 1
  32        9       30 1
  33        9       31 1
  34       10       32 1
  35       10       33 1
  36       12       34 1
  37       12       35 1
  38       14       36 1
  39       14       37 1
  40       14       38 1
  41       15       39 1
  42       15       40 1
  43       15       41 1
  44       16       42 1
  45       16       43 1
  46       17       44 1

@<TRIPOS>MOLECULE

  44   46
SMALL
USER_CHARGES
@<TRIPOS>ATOM
   1 C1          -1.2600     4.9550    -1.3266 C.3          1    LIG   0.0000
   2 C2          -0.5611     3.6212    -1.1242 C.2          1    LIG   0.0000
   3 C3          -0.1630     3.0720     0.0586 C.2          1    LIG   0.0000
   4 C4           0.4576     1.8176    -0.1463 C.2          1    LIG   0.0000
   5 C5           1.0000     1.0000     1.0000 C.3          1    LIG   0.0000
   6 N6           1.8485     1.8485     1.8485 N.4          1    LIG   1.0000
   7 C7           1.1434     2.6623     2.8432 C.3          1    LIG   0.0000
   8 C8           2.1540     3.7546     3.0998 C.3          1    LIG   0.0000
   9 C9           1.5606     4.8797     3.9325 C.3          1    LIG   0.0000
  10 C10          2.1856     4.1041     1.6350 C.3          1    LIG   0.0000
  11 C11          2.7028     2.7859     1.1183 C.3          1    LIG   0.0000
  12 C12          4.1296     2.4832     1.5616 C.3          1    LIG   0.0000
  13 C13          4.2745     2.2903     3.0669 C.3          1    LIG   0.0000
  14 C14          5.7637     2.2588     3.3660 C.3          1    LIG   0.0000
  15 C15          3.7704     0.9599     3.6174 C.3          1    LIG   0.0000
  16 C16          3.5603     3.5119     3.6482 C.3          1    LIG   0.0000
  17 C17          0.5773     1.3344    -1.4105 C.2          1    LIG   0.0000
  18 S18         -0.1335     2.5467    -2.3711 S.3          1    LIG   0.0000
  19 H            2.4565     1.2362     2.3539 H            1    LIG   0.0000
  20 H            2.5917     2.7014     0.1280 H            1    LIG   0.0000
  21 H           -1.3995     5.3961    -0.4400 H            1    LIG   0.0000
  22 H           -0.6953     5.5427    -1.9061 H            1    LIG   0.0000
  23 H           -2.1451     4.8041    -1.7668 H            1    LIG   0.0000
  24 H           -0.2928     3.4997     0.9532 H            1    LIG   0.0000
  25 H            0.2403     0.6405     1.5419 H            1    LIG   0.0000
  26 H            1.5419     0.2403     0.6405 H            1    LIG   0.0000
  27 H            0.9501     2.1397     3.6736 H            1    LIG   0.0000
  28 H            0.2900     3.0319     2.4758 H            1    LIG   0.0000
  29 H            2.2542     5.5841     4.0835 H            1    LIG   0.0000
  30 H            0.7813     5.2775     3.4483 H            1    LIG   0.0000
  31 H            1.2561     4.5175     4.8135 H            1    LIG   0.0000
  32 H            2.8107     4.8596     1.4389 H            1    LIG   0.0000
  33 H            1.2774     4.3215     1.2773 H            1    LIG   0.0000
  34 H            4.4314     1.6461     1.1053 H            1    LIG   0.0000
  35 H            4.7152     3.2444     1.2829 H            1    LIG   0.0000
  36 H            6.1680     1.4392     2.9600 H            1    LIG   0.0000
  37 H            6.1987     3.0718     2.9790 H            1    LIG   0.0000
  38 H            5.9046     2.2446     4.3559 H            1    LIG   0.0000
  39 H            4.2796     0.2100     3.1951 H            1    LIG   0.0000
  40 H            3.9038     0.9371     4.6082 H            1    LIG   0.0000
  41 H            2.7973     0.8605     3.4097 H            1    LIG   0.0000
  42 H            3.4912     3.3898     4.6383 H            1    LIG   0.0000
  43 H            4.1151     4.3200     3.4499 H            1    LIG   0.0000
  44 H            0.9861     0.4712    -1.7065 H            1    LIG   0.0000
@<TRIPOS>BOND
   1        1        2 1
   2        2        3 2
   3        3        4 1
   4        4        5 1
   5        5        6 1
   6        6        7 1
   7        7        8 1
   8        8        9 1
   9        8       10 1
  10       10       11 1
  11       11        6 1
  12       11       12 1
  13       12       13 1
  14       13       14 1
  15       13       15 1
  16       13       16 1
  17       16        8 1
  18        4       17 2
  19       17       18 1
  20       18        2 1
  21        6       19 1
  22       11       20 1
  23        1       21 1
  24        1       22 1
  25        1       23 1
  26        3       24 1
  27        5       25 1
  28        5       26 1
  29        7       27 1
  30        7       28 1
  31        9       29 1
  32        9       30 1
  33        9       31 1
  34       10       32 1
  35       10       33 1
  36       12       34 1
  37       12       35 1
  38       14       36 1
  39       14       37 1
  40       14       38 1
  41       15       39 1
  42       15       40 1
  43       15       41 1
  44       16       42 1
  45       16       43 1
  46       17       44 1

@<TRIPOS>MOLECULE

  44   46
SMALL
USER_CHARGES
@<TRIPOS>ATOM
   1 C1           1.1171     4.1839    -3.0014 C.3          1    LIG   0.0000
   2 C2           0.5816     3.2471    -1.9318 C.2          1    LIG   0.0000
   3 C3           1.2979     2.6117    -0.9610 C.2          1    LIG   0.0000
   4 C4           0.4576     1.8176    -0.1463 C.2          1    LIG   0.0000
   5 C5           1.0000     1.0000     1.0000 C.3          1    LIG   0.0000
   6 N6           1.8485     1.8485     1.8485 N.4          1    LIG   1.0000
   7 C7           1.3273     3.1888     2.1329 C.3          1    LIG   0.0000
   8 C8           2.5955     3.9297     2.4831 C.3          1    LIG   0.0000
   9 C9           2.3559     5.4272     2.5897 C.3          1    LIG   0.0000
  10 C10          3.2086     3.5575     1.1585 C.3          1    LIG   0.0000
  11 C11          3.2045     2.0613     1.3410 C.3          1    LIG   0.0000
  12 C12          4.1430     1.5867     2.4448 C.3          1    LIG   0.0000
  13 C13          3.7374     2.0574     3.8368 C.3          1    LIG   0.0000
  14 C14          4.8924     1.7287     4.7674 C.3          1    LIG   0.0000
  15 C15          2.5531     1.3295     4.4651 C.3          1    LIG   0.0000
  16 C16          3.5128     3.5589     3.6487 C.3          1    LIG   0.0000
  17 C17         -0.8759     1.7812    -0.4041 C.2          1    LIG   0.0000
  18 S18         -1.0510     2.8067    -1.7514 S.3          1    LIG   0.0000
  19 H            1.9386     1.3804     2.7276 H            1    LIG   0.0000
  20 H            3.3632     1.5779     0.4801 H            1    LIG   0.0000
  21 H            2.1066     4.2811    -2.8944 H            1    LIG   0.0000
  22 H            0.9150     3.8077    -3.9056 H            1    LIG   0.0000
  23 H            0.6821     5.0795    -2.9082 H            1    LIG   0.0000
  24 H            2.2871     2.6962    -0.8408 H            1    LIG   0.0000
  25 H            0.2403     0.6405     1.5419 H            1    LIG   0.0000
  26 H            1.5419     0.2403     0.6405 H            1    LIG   0.0000
  27 H            0.6860     3.1773     2.9001 H            1    LIG   0.0000
  28 H            0.8806     3.5859     1.3311 H            1    LIG   0.0000
  29 H            3.2134     5.8863     2.8221 H            1    LIG   0.0000
  30 H            2.0188     5.7739     1.7144 H            1    LIG   0.0000
  31 H            1.6780     5.6064     3.3026 H            1    LIG   0.0000
  32 H            4.1330     3.9240     1.0523 H            1    LIG   0.0000
  33 H            2.6445     3.8466     0.3851 H            1    LIG   0.0000
  34 H            4.1555     0.5868     2.4405 H            1    LIG   0.0000
  35 H            5.0608     1.9324     2.2494 H            1    LIG   0.0000
  36 H            4.9846     0.7361     4.8465 H            1    LIG   0.0000
  37 H            5.7382     2.1135     4.3978 H            1    LIG   0.0000
  38 H            4.7148     2.1200     5.6703 H            1    LIG   0.0000
  39 H            2.7699     0.3577     4.5572 H            1    LIG   0.0000
  40 H            2.3650     1.7161     5.3679 H            1    LIG   0.0000
  41 H            1.7479     1.4376     3.8819 H            1    LIG   0.0000
  42 H            3.1094     3.9208     4.4891 H            1    LIG   0.0000
  43 H            4.4021     3.9893     3.4936 H            1    LIG   0.0000
  44 H           -1.5862     1.2726     0.0824 H            1    LIG   0.0000
@<TRIPOS>BOND
   1        1        2 1
   2        2        3 2
   3        3        4 1
   4        4        5 1
   5        5        6 1
   6        6        7 1
   7        7        8 1
   8        8        9 1
   9        8       10 1
  10       10       11 1
  11       11        6 1
  12       11       12 1
  13       12       13 1
  14       13       14 1
  15       13       15 1
  16       13       16 1
  17       16        8 1
  18        4       17 2
  19       17       18 1
  20       18        2 1
  21        6       19 1
  22       11       20 1
  23        1       21 1
  24        1       22 1
  25        1       23 1
  26        3       24 1
  27        5       25 1
  28        5       26 1
  29        7       27 1
  30        7       28 1
  31        9       29 1
  32        9       30 1
  33        9       31 1
  34       10       32 1
  35       10       33 1
  36       12       34 1
  37       12       35 1
  38       14       36 1
  39       14       37 1
  40       14       38 1
  41       15       39 1
  42       15       40 1
  43       15       41 1
  44       16       42 1
  45       16       43 1
  46       17       44 1

@<TRIPOS>MOLECULE

  44   46
SMALL
USER_CHARGES
@<TRIPOS>ATOM
   1 C1          -2.5130     2.9345    -2.1747 C.3          1    LIG   0.0000
   2 C2          -1.1667     2.6492    -1.5309 C.2          1    LIG   0.0000
   3 C3          -0.9200     1.8331    -0.4668 C.2          1    LIG   0.0000
   4 C4           0.4576     1.8176    -0.1463 C.2          1    LIG   0.0000
   5 C5           1.0000     1.0000     1.0000 C.3          1    LIG   0.0000
   6 N6           1.8485     1.8485     1.8485 N.4          1    LIG   1.0000
   7 C7           1.3273     3.1888     2.1329 C.3          1    LIG   0.0000
   8 C8           2.5955     3.9297     2.4831 C.3          1    LIG   0.0000
   9 C9           2.3559     5.4272     2.5897 C.3          1    LIG   0.0000
  10 C10          3.2086     3.5575     1.1585 C.3          1    LIG   0.0000
  11 C11          3.2045     2.0613     1.3410 C.3          1    LIG   0.0000
  12 C12          4.1430     1.5867     2.4448 C.3          1    LIG   0.0000
  13 C13          3.7374     2.0574     3.8368 C.3          1    LIG   0.0000
  14 C14          4.8924     1.7287     4.7674 C.3          1    LIG   0.0000
  15 C15          2.5531     1.3295     4.4651 C.3          1    LIG   0.0000
  16 C16          3.5128     3.5589     3.6487 C.3          1    LIG   0.0000
  17 C17          1.3197     2.5644    -0.8845 C.2          1    LIG   0.0000
  18 S18          0.3140     3.3185    -2.0323 S.3          1    LIG   0.0000
  19 H            1.9386     1.3804     2.7276 H            1    LIG   0.0000
  20 H            3.3632     1.5779     0.4801 H            1    LIG   0.0000
  21 H           -3.2261     2.4207    -1.6978 H            1    LIG   0.0000
  22 H           -2.7105     3.9130    -2.1148 H            1    LIG   0.0000
  23 H           -2.4885     2.6575    -3.1353 H            1    LIG   0.0000
  24 H           -1.6207     1.3139     0.0226 H            1    LIG   0.0000
  25 H            0.2403     0.6405     1.5419 H            1    LIG   0.0000
  26 H            1.5419     0.2403     0.6405 H            1    LIG   0.0000
  27 H            0.6860     3.1773     2.9001 H            1    LIG   0.0000
  28 H            0.8806     3.5859     1.3311 H            1    LIG   0.0000
  29 H            3.2134     5.8863     2.8221 H            1    LIG   0.0000
  30 H            2.0188     5.7739     1.7144 H            1    LIG   0.0000
  31 H            1.6780     5.6064     3.3026 H            1    LIG   0.0000
  32 H            4.1330     3.9240     1.0523 H            1    LIG   0.0000
  33 H            2.6445     3.8466     0.3851 H            1    LIG   0.0000
  34 H            4.1555     0.5868     2.4405 H            1    LIG   0.0000
  35 H            5.0608     1.9324     2.2494 H            1    LIG   0.0000
  36 H            4.9846     0.7361     4.8465 H            1    LIG   0.0000
  37 H            5.7382     2.1135     4.3978 H            1    LIG   0.0000
  38 H            4.7148     2.1200     5.6703 H            1    LIG   0.0000
  39 H            2.7699     0.3577     4.5572 H            1    LIG   0.0000
  40 H            2.3650     1.7161     5.3679 H            1    LIG   0.0000
  41 H            1.7479     1.4376     3.8819 H            1    LIG   0.0000
  42 H            3.1094     3.9208     4.4891 H            1    LIG   0.0000
  43 H            4.4021     3.9893     3.4936 H            1    LIG   0.0000
  44 H            2.3103     2.6506    -0.7787 H            1    LIG   0.0000
@<TRIPOS>BOND
   1        1        2 1
   2        2        3 2
   3        3        4 1
   4        4        5 1
   5        5        6 1
   6        6        7 1
   7        7        8 1
   8        8        9 1
   9        8       10 1
  10       10       11 1
  11       11        6 1
  12       11       12 1
  13       12       13 1
  14       13       14 1
  15       13       15 1
  16       13       16 1
  17       16        8 1
  18        4       17 2
  19       17       18 1
  20       18        2 1
  21        6       19 1
  22       11       20 1
  23        1       21 1
  24        1       22 1
  25        1       23 1
  26        3       24 1
  27        5       25 1
  28        5       26 1
  29        7       27 1
  30        7       28 1
  31        9       29 1
  32        9       30 1
  33        9       31 1
  34       10       32 1
  35       10       33 1
  36       12       34 1
  37       12       35 1
  38       14       36 1
  39       14       37 1
  40       14       38 1
  41       15       39 1
  42       15       40 1
  43       15       41 1
  44       16       42 1
  45       16       43 1
  46       17       44 1

@<TRIPOS>MOLECULE

  44   46
SMALL
USER_CHARGES
@<TRIPOS>ATOM
   1 C1           0.8535     3.0559    -3.6813 C.3          1    LIG   0.0000
   2 C2           0.4533     2.7040    -2.2585 C.2          1    LIG   0.0000
   3 C3           1.1425     1.9220    -1.3794 C.2          1    LIG   0.0000
   4 C4           0.4576     1.8176    -0.1463 C.2          1    LIG   0.0000
   5 C5           1.0000     1.0000     1.0000 C.3          1    LIG   0.0000
   6 N6           1.8485     1.8485     1.8485 N.4          1    LIG   1.0000
   7 C7           1.4616     1.9271     3.2603 C.3          1    LIG   0.0000
   8 C8           2.1096     3.2277     3.6711 C.3          1    LIG   0.0000
   9 C9           1.6529     3.6667     5.0531 C.3          1    LIG   0.0000
  10 C10          1.3760     3.9663     2.5824 C.3          1    LIG   0.0000
  11 C11          1.9668     3.2374     1.4027 C.3          1    LIG   0.0000
  12 C12          3.4589     3.4928     1.2228 C.3          1    LIG   0.0000
  13 C13          4.3138     2.9537     2.3641 C.3          1    LIG   0.0000
  14 C14          5.7143     3.5082     2.1659 C.3          1    LIG   0.0000
  15 C15          4.5255     1.4431     2.3790 C.3          1    LIG   0.0000
  16 C16          3.6140     3.4937     3.6128 C.3          1    LIG   0.0000
  17 C17         -0.7266     2.4644     0.0126 C.2          1    LIG   0.0000
  18 S18         -0.9674     3.2323    -1.4874 S.3          1    LIG   0.0000
  19 H            2.7681     1.4566     1.8218 H            1    LIG   0.0000
  20 H            1.4531     3.4065     0.5616 H            1    LIG   0.0000
  21 H            1.7286     2.6232    -3.8981 H            1    LIG   0.0000
  22 H            0.1533     2.7279    -4.3154 H            1    LIG   0.0000
  23 H            0.9421     4.0483    -3.7668 H            1    LIG   0.0000
  24 H            2.0171     1.4806    -1.5800 H            1    LIG   0.0000
  25 H            0.2403     0.6405     1.5419 H            1    LIG   0.0000
  26 H            1.5419     0.2403     0.6405 H            1    LIG   0.0000
  27 H            1.8246     1.1558     3.7831 H            1    LIG   0.0000
  28 H            0.4679     1.9635     3.3663 H            1    LIG   0.0000
  29 H            2.0996     4.5285     5.2936 H            1    LIG   0.0000
  30 H            0.6611     3.7944     5.0516 H            1    LIG   0.0000
  31 H            1.8977     2.9660     5.7233 H            1    LIG   0.0000
  32 H            1.5940     4.9422     2.5730 H            1    LIG   0.0000
  33 H            0.3851     3.8467     2.6444 H            1    LIG   0.0000
  34 H            3.7541     3.0555     0.3733 H            1    LIG   0.0000
  35 H            3.6049     4.4799     1.1578 H            1    LIG   0.0000
  36 H            6.1134     3.1171     1.3367 H            1    LIG   0.0000
  37 H            5.6693     4.5033     2.0769 H            1    LIG   0.0000
  38 H            6.2819     3.2694     2.9538 H            1    LIG   0.0000
  39 H            4.9855     1.1626     1.5366 H            1    LIG   0.0000
  40 H            5.0898     1.1934     3.1660 H            1    LIG   0.0000
  41 H            3.6400     0.9830     2.4444 H            1    LIG   0.0000
  42 H            4.0361     3.0694     4.4138 H            1    LIG   0.0000
  43 H            3.7563     4.4830     3.6457 H            1    LIG   0.0000
  44 H           -1.3169     2.4846     0.8195 H            1    LIG   0.0000
@<TRIPOS>BOND
   1        1        2 1
   2        2        3 2
   3        3        4 1
   4        4        5 1
   5        5        6 1
   6        6        7 1
   7        7        8 1
   8        8        9 1
   9        8       10 1
  10       10       11 1
  11       11        6 1
  12       11       12 1
  13       12       13 1
  14       13       14 1
  15       13       15 1
  16       13       16 1
  17       16        8 1
  18        4       17 2
  19       17       18 1
  20       18        2 1
  21        6       19 1
  22       11       20 1
  23        1       21 1
  24        1       22 1
  25        1       23 1
  26        3       24 1
  27        5       25 1
  28        5       26 1
  29        7       27 1
  30        7       28 1
  31        9       29 1
  32        9       30 1
  33        9       31 1
  34       10       32 1
  35       10       33 1
  36       12       34 1
  37       12       35 1
  38       14       36 1
  39       14       37 1
  40       14       38 1
  41       15       39 1
  42       15       40 1
  43       15       41 1
  44       16       42 1
  45       16       43 1
  46       17       44 1

@<TRIPOS>MOLECULE

  44   46
SMALL
USER_CHARGES
@<TRIPOS>ATOM
   1 C1          -2.2495     4.0625    -1.4949 C.3          1    LIG   0.0000
   2 C2          -1.0384     3.1923    -1.2043 C.2          1    LIG   0.0000
   3 C3          -0.7646     2.5228    -0.0484 C.2          1    LIG   0.0000
   4 C4           0.4576     1.8176    -0.1463 C.2          1    LIG   0.0000
   5 C5           1.0000     1.0000     1.0000 C.3          1    LIG   0.0000
   6 N6           1.8485     1.8485     1.8485 N.4          1    LIG   1.0000
   7 C7           1.4616     1.9271     3.2603 C.3          1    LIG   0.0000
   8 C8           2.1096     3.2277     3.6711 C.3          1    LIG   0.0000
   9 C9           1.6529     3.6667     5.0531 C.3          1    LIG   0.0000
  10 C10          1.3760     3.9663     2.5824 C.3          1    LIG   0.0000
  11 C11          1.9668     3.2374     1.4027 C.3          1    LIG   0.0000
  12 C12          3.4589     3.4928     1.2228 C.3          1    LIG   0.0000
  13 C13          4.3138     2.9537     2.3641 C.3          1    LIG   0.0000
  14 C14          5.7143     3.5082     2.1659 C.3          1    LIG   0.0000
  15 C15          4.5255     1.4431     2.3790 C.3          1    LIG   0.0000
  16 C16          3.6140     3.4937     3.6128 C.3          1    LIG   0.0000
  17 C17          1.1704     1.8812    -1.3012 C.2          1    LIG   0.0000
  18 S18          0.2303     2.8929    -2.2963 S.3          1    LIG   0.0000
  19 H            2.7681     1.4566     1.8218 H            1    LIG   0.0000
  20 H            1.4531     3.4065     0.5616 H            1    LIG   0.0000
  21 H           -2.8482     4.0787    -0.6941 H            1    LIG   0.0000
  22 H           -1.9488     4.9928    -1.7051 H            1    LIG   0.0000
  23 H           -2.7485     3.6888    -2.2767 H            1    LIG   0.0000
  24 H           -1.3507     2.5295     0.7618 H            1    LIG   0.0000
  25 H            0.2403     0.6405     1.5419 H            1    LIG   0.0000
  26 H            1.5419     0.2403     0.6405 H            1    LIG   0.0000
  27 H            1.8246     1.1558     3.7831 H            1    LIG   0.0000
  28 H            0.4679     1.9635     3.3663 H            1    LIG   0.0000
  29 H            2.0996     4.5285     5.2936 H            1    LIG   0.0000
  30 H            0.6611     3.7944     5.0516 H            1    LIG   0.0000
  31 H            1.8977     2.9660     5.7233 H            1    LIG   0.0000
  32 H            1.5940     4.9422     2.5730 H            1    LIG   0.0000
  33 H            0.3851     3.8467     2.6444 H            1    LIG   0.0000
  34 H            3.7541     3.0555     0.3733 H            1    LIG   0.0000
  35 H            3.6049     4.4799     1.1578 H            1    LIG   0.0000
  36 H            6.1134     3.1171     1.3367 H            1    LIG   0.0000
  37 H            5.6693     4.5033     2.0769 H            1    LIG   0.0000
  38 H            6.2819     3.2694     2.9538 H            1    LIG   0.0000
  39 H            4.9855     1.1626     1.5366 H            1    LIG   0.0000
  40 H            5.0898     1.1934     3.1660 H            1    LIG   0.0000
  41 H            3.6400     0.9830     2.4444 H            1    LIG   0.0000
  42 H            4.0361     3.0694     4.4138 H            1    LIG   0.0000
  43 H            3.7563     4.4830     3.6457 H            1    LIG   0.0000
  44 H            2.0410     1.4385    -1.5157 H            1    LIG   0.0000
@<TRIPOS>BOND
   1        1        2 1
   2        2        3 2
   3        3        4 1
   4        4        5 1
   5        5        6 1
   6        6        7 1
   7        7        8 1
   8        8        9 1
   9        8       10 1
  10       10       11 1
  11       11        6 1
  12       11       12 1
  13       12       13 1
  14       13       14 1
  15       13       15 1
  16       13       16 1
  17       16        8 1
  18        4       17 2
  19       17       18 1
  20       18        2 1
  21        6       19 1
  22       11       20 1
  23        1       21 1
  24        1       22 1
  25        1       23 1
  26        3       24 1
  27        5       25 1
  28        5       26 1
  29        7       27 1
  30        7       28 1
  31        9       29 1
  32        9       30 1
  33        9       31 1
  34       10       32 1
  35       10       33 1
  36       12       34 1
  37       12       35 1
  38       14       36 1
  39       14       37 1
  40       14       38 1
  41       15       39 1
  42       15       40 1
  43       15       41 1
  44       16       42 1
  45       16       43 1
  46       17       44 1

