@<TRIPOS>MOLECULE
*****
 44 46 0 0 0
SMALL
USER_CHARGES

@<TRIPOS>ATOM
      1 C1          1.1171    4.1839   -3.0014 C.3     1  LIG1        0.0000
      2 C2          0.5816    3.2471   -1.9318 C.2     1  LIG1        0.0000
      3 C3          1.2979    2.6117   -0.9610 C.2     1  LIG1        0.0000
      4 C4          0.4576    1.8176   -0.1463 C.2     1  LIG1        0.0000
      5 C5          1.0000    1.0000    1.0000 C.3     1  LIG1        0.0000
      6 N6          1.8485    1.8485    1.8485 N.4     1  LIG1        1.0000
      7 C7          1.3273    3.1888    2.1329 C.3     1  LIG1        0.0000
      8 C8          2.5955    3.9297    2.4831 C.3     1  LIG1        0.0000
      9 C9          2.3559    5.4272    2.5897 C.3     1  LIG1        0.0000
     10 C10         3.2086    3.5575    1.1585 C.3     1  LIG1        0.0000
     11 C11         3.2045    2.0613    1.3410 C.3     1  LIG1        0.0000
     12 C12         4.1430    1.5867    2.4448 C.3     1  LIG1        0.0000
     13 C13         3.7374    2.0574    3.8368 C.3     1  LIG1        0.0000
     14 C14         4.8924    1.7287    4.7674 C.3     1  LIG1        0.0000
     15 C15         2.5531    1.3295    4.4651 C.3     1  LIG1        0.0000
     16 C16         3.5128    3.5589    3.6487 C.3     1  LIG1        0.0000
     17 C17        -0.8759    1.7812   -0.4041 C.2     1  LIG1        0.0000
     18 S18        -1.0510    2.8067   -1.7514 S.3     1  LIG1        0.0000
     19 H           1.9386    1.3804    2.7276 H       1  LIG1        0.0000
     20 H           3.3632    1.5779    0.4801 H       1  LIG1        0.0000
     21 H           2.1066    4.2811   -2.8944 H       1  LIG1        0.0000
     22 H           0.9150    3.8077   -3.9056 H       1  LIG1        0.0000
     23 H           0.6821    5.0795   -2.9082 H       1  LIG1        0.0000
     24 H           2.2871    2.6962   -0.8408 H       1  LIG1        0.0000
     25 H           0.2403    0.6405    1.5419 H       1  LIG1        0.0000
     26 H           1.5419    0.2403    0.6405 H       1  LIG1        0.0000
     27 H           0.6860    3.1773    2.9001 H       1  LIG1        0.0000
     28 H           0.8806    3.5859    1.3311 H       1  LIG1        0.0000
     29 H           3.2134    5.8863    2.8221 H       1  LIG1        0.0000
     30 H           2.0188    5.7739    1.7144 H       1  LIG1        0.0000
     31 H           1.6780    5.6064    3.3026 H       1  LIG1        0.0000
     32 H           4.1330    3.9240    1.0523 H       1  LIG1        0.0000
     33 H           2.6445    3.8466    0.3851 H       1  LIG1        0.0000
     34 H           4.1555    0.5868    2.4405 H       1  LIG1        0.0000
     35 H           5.0608    1.9324    2.2494 H       1  LIG1        0.0000
     36 H           4.9846    0.7361    4.8465 H       1  LIG1        0.0000
     37 H           5.7382    2.1135    4.3978 H       1  LIG1        0.0000
     38 H           4.7148    2.1200    5.6703 H       1  LIG1        0.0000
     39 H           2.7699    0.3577    4.5572 H       1  LIG1        0.0000
     40 H           2.3650    1.7161    5.3679 H       1  LIG1        0.0000
     41 H           1.7479    1.4376    3.8819 H       1  LIG1        0.0000
     42 H           3.1094    3.9208    4.4891 H       1  LIG1        0.0000
     43 H           4.4021    3.9893    3.4936 H       1  LIG1        0.0000
     44 H          -1.5862    1.2726    0.0824 H       1  LIG1        0.0000
@<TRIPOS>UNITY_ATOM_ATTR
6 1
charge 1
@<TRIPOS>BOND
     1     1     2    1
     2     2     3    2
     3     3     4    1
     4     4     5    1
     5     5     6    1
     6     6     7    1
     7     7     8    1
     8     8     9    1
     9     8    10    1
    10    10    11    1
    11    11     6    1
    12    11    12    1
    13    12    13    1
    14    13    14    1
    15    13    15    1
    16    13    16    1
    17    16     8    1
    18     4    17    2
    19    17    18    1
    20    18     2    1
    21     6    19    1
    22    11    20    1
    23     1    21    1
    24     1    22    1
    25     1    23    1
    26     3    24    1
    27     5    25    1
    28     5    26    1
    29     7    27    1
    30     7    28    1
    31     9    29    1
    32     9    30    1
    33     9    31    1
    34    10    32    1
    35    10    33    1
    36    12    34    1
    37    12    35    1
    38    14    36    1
    39    14    37    1
    40    14    38    1
    41    15    39    1
    42    15    40    1
    43    15    41    1
    44    16    42    1
    45    16    43    1
    46    17    44    1
