@<TRIPOS>MOLECULE
*****
 44 46 0 0 0
SMALL
USER_CHARGES

@<TRIPOS>ATOM
      1 C1         -1.6727    1.9875   -3.2478 C.3     1  LIG1        0.0000
      2 C2         -0.7637    2.1921   -2.0477 C.2     1  LIG1        0.0000
      3 C3         -0.3999    1.2588   -1.1226 C.2     1  LIG1        0.0000
      4 C4          0.4576    1.8176   -0.1463 C.2     1  LIG1        0.0000
      5 C5          1.0000    1.0000    1.0000 C.3     1  LIG1        0.0000
      6 N6          1.8494    1.8494    1.8494 N.4     1  LIG1        1.0000
      7 C7          1.9253    1.4509    3.2643 C.3     1  LIG1        0.0000
      8 C8          3.3804    1.6462    3.6827 C.3     1  LIG1        0.0000
      9 C9          3.4919    2.1096    5.1257 C.3     1  LIG1        0.0000
     10 C10         3.7845    2.6949    2.6696 C.3     1  LIG1        0.0000
     11 C11         3.2091    2.1019    1.4044 C.3     1  LIG1        0.0000
     12 C12         3.8812    0.8247    0.9146 C.3     1  LIG1        0.0000
     13 C13         4.3799   -0.0963    2.0328 C.3     1  LIG1        0.0000
     14 C14         4.0211   -1.5398    1.7152 C.3     1  LIG1        0.0000
     15 C15         5.9013   -0.0069    2.0096 C.3     1  LIG1        0.0000
     16 C16         3.9841    0.2582    3.4671 C.3     1  LIG1        0.0000
     17 C17         0.7994    3.1295   -0.2352 C.2     1  LIG1        0.0000
     18 S18        -0.0204    3.6630   -1.6284 S.3     1  LIG1        0.0000
     19 H           1.4042    2.7448    1.8528 H       1  LIG1        0.0000
     20 H           3.2079    2.7874    0.6763 H       1  LIG1        0.0000
     21 H          -1.9807    1.0365   -3.2744 H       1  LIG1        0.0000
     22 H          -2.4653    2.5926   -3.1726 H       1  LIG1        0.0000
     23 H          -1.1704    2.1988   -4.0863 H       1  LIG1        0.0000
     24 H          -0.6997    0.3048   -1.1330 H       1  LIG1        0.0000
     25 H           0.2403    0.6405    1.5419 H       1  LIG1        0.0000
     26 H           1.5419    0.2403    0.6405 H       1  LIG1        0.0000
     27 H           1.6597    0.4926    3.3696 H       1  LIG1        0.0000
     28 H           1.3245    2.0262    3.8194 H       1  LIG1        0.0000
     29 H           4.4558    2.2268    5.3647 H       1  LIG1        0.0000
     30 H           3.0133    2.9809    5.2340 H       1  LIG1        0.0000
     31 H           3.0799    1.4259    5.7281 H       1  LIG1        0.0000
     32 H           4.7785    2.7886    2.6133 H       1  LIG1        0.0000
     33 H           3.3772    3.5841    2.8778 H       1  LIG1        0.0000
     34 H           3.2212    0.3162    0.3615 H       1  LIG1        0.0000
     35 H           4.6641    1.0808    0.3477 H       1  LIG1        0.0000
     36 H           4.2878   -1.7504    0.7747 H       1  LIG1        0.0000
     37 H           4.5048   -2.1494    2.3433 H       1  LIG1        0.0000
     38 H           3.0349   -1.6687    1.8188 H       1  LIG1        0.0000
     39 H           6.2343   -0.2284    1.0930 H       1  LIG1        0.0000
     40 H           6.1844    0.9211    2.2518 H       1  LIG1        0.0000
     41 H           6.2834   -0.6547    2.6686 H       1  LIG1        0.0000
     42 H           3.3123   -0.4165    3.7729 H       1  LIG1        0.0000
     43 H           4.8050    0.1921    4.0344 H       1  LIG1        0.0000
     44 H           1.3921    3.6568    0.3736 H       1  LIG1        0.0000
@<TRIPOS>UNITY_ATOM_ATTR
6 1
charge 1
@<TRIPOS>BOND
     1     1     2    1
     2     2     3    2
     3     3     4    1
     4     4     5    1
     5     5     6    1
     6     6     7    1
     7     7     8    1
     8     8     9    1
     9     8    10    1
    10    10    11    1
    11    11     6    1
    12    11    12    1
    13    12    13    1
    14    13    14    1
    15    13    15    1
    16    13    16    1
    17    16     8    1
    18     4    17    2
    19    17    18    1
    20    18     2    1
    21     6    19    1
    22    11    20    1
    23     1    21    1
    24     1    22    1
    25     1    23    1
    26     3    24    1
    27     5    25    1
    28     5    26    1
    29     7    27    1
    30     7    28    1
    31     9    29    1
    32     9    30    1
    33     9    31    1
    34    10    32    1
    35    10    33    1
    36    12    34    1
    37    12    35    1
    38    14    36    1
    39    14    37    1
    40    14    38    1
    41    15    39    1
    42    15    40    1
    43    15    41    1
    44    16    42    1
    45    16    43    1
    46    17    44    1
