@<TRIPOS>MOLECULE
*****
 44 46 0 0 0
SMALL
USER_CHARGES

@<TRIPOS>ATOM
      1 C1         -2.2495    4.0625   -1.4949 C.3     1  LIG1        0.0000
      2 C2         -1.0384    3.1923   -1.2043 C.2     1  LIG1        0.0000
      3 C3         -0.7646    2.5228   -0.0484 C.2     1  LIG1        0.0000
      4 C4          0.4576    1.8176   -0.1463 C.2     1  LIG1        0.0000
      5 C5          1.0000    1.0000    1.0000 C.3     1  LIG1        0.0000
      6 N6          1.8485    1.8485    1.8485 N.4     1  LIG1        1.0000
      7 C7          1.4616    1.9271    3.2603 C.3     1  LIG1        0.0000
      8 C8          2.1096    3.2277    3.6711 C.3     1  LIG1        0.0000
      9 C9          1.6529    3.6667    5.0531 C.3     1  LIG1        0.0000
     10 C10         1.3760    3.9663    2.5824 C.3     1  LIG1        0.0000
     11 C11         1.9668    3.2374    1.4027 C.3     1  LIG1        0.0000
     12 C12         3.4589    3.4928    1.2228 C.3     1  LIG1        0.0000
     13 C13         4.3138    2.9537    2.3641 C.3     1  LIG1        0.0000
     14 C14         5.7143    3.5082    2.1659 C.3     1  LIG1        0.0000
     15 C15         4.5255    1.4431    2.3790 C.3     1  LIG1        0.0000
     16 C16         3.6140    3.4937    3.6128 C.3     1  LIG1        0.0000
     17 C17         1.1704    1.8812   -1.3012 C.2     1  LIG1        0.0000
     18 S18         0.2303    2.8929   -2.2963 S.3     1  LIG1        0.0000
     19 H           2.7681    1.4566    1.8218 H       1  LIG1        0.0000
     20 H           1.4531    3.4065    0.5616 H       1  LIG1        0.0000
     21 H          -2.8482    4.0787   -0.6941 H       1  LIG1        0.0000
     22 H          -1.9488    4.9928   -1.7051 H       1  LIG1        0.0000
     23 H          -2.7485    3.6888   -2.2767 H       1  LIG1        0.0000
     24 H          -1.3507    2.5295    0.7618 H       1  LIG1        0.0000
     25 H           0.2403    0.6405    1.5419 H       1  LIG1        0.0000
     26 H           1.5419    0.2403    0.6405 H       1  LIG1        0.0000
     27 H           1.8246    1.1558    3.7831 H       1  LIG1        0.0000
     28 H           0.4679    1.9635    3.3663 H       1  LIG1        0.0000
     29 H           2.0996    4.5285    5.2936 H       1  LIG1        0.0000
     30 H           0.6611    3.7944    5.0516 H       1  LIG1        0.0000
     31 H           1.8977    2.9660    5.7233 H       1  LIG1        0.0000
     32 H           1.5940    4.9422    2.5730 H       1  LIG1        0.0000
     33 H           0.3851    3.8467    2.6444 H       1  LIG1        0.0000
     34 H           3.7541    3.0555    0.3733 H       1  LIG1        0.0000
     35 H           3.6049    4.4799    1.1578 H       1  LIG1        0.0000
     36 H           6.1134    3.1171    1.3367 H       1  LIG1        0.0000
     37 H           5.6693    4.5033    2.0769 H       1  LIG1        0.0000
     38 H           6.2819    3.2694    2.9538 H       1  LIG1        0.0000
     39 H           4.9855    1.1626    1.5366 H       1  LIG1        0.0000
     40 H           5.0898    1.1934    3.1660 H       1  LIG1        0.0000
     41 H           3.6400    0.9830    2.4444 H       1  LIG1        0.0000
     42 H           4.0361    3.0694    4.4138 H       1  LIG1        0.0000
     43 H           3.7563    4.4830    3.6457 H       1  LIG1        0.0000
     44 H           2.0410    1.4385   -1.5157 H       1  LIG1        0.0000
@<TRIPOS>UNITY_ATOM_ATTR
6 1
charge 1
@<TRIPOS>BOND
     1     1     2    1
     2     2     3    2
     3     3     4    1
     4     4     5    1
     5     5     6    1
     6     6     7    1
     7     7     8    1
     8     8     9    1
     9     8    10    1
    10    10    11    1
    11    11     6    1
    12    11    12    1
    13    12    13    1
    14    13    14    1
    15    13    15    1
    16    13    16    1
    17    16     8    1
    18     4    17    2
    19    17    18    1
    20    18     2    1
    21     6    19    1
    22    11    20    1
    23     1    21    1
    24     1    22    1
    25     1    23    1
    26     3    24    1
    27     5    25    1
    28     5    26    1
    29     7    27    1
    30     7    28    1
    31     9    29    1
    32     9    30    1
    33     9    31    1
    34    10    32    1
    35    10    33    1
    36    12    34    1
    37    12    35    1
    38    14    36    1
    39    14    37    1
    40    14    38    1
    41    15    39    1
    42    15    40    1
    43    15    41    1
    44    16    42    1
    45    16    43    1
    46    17    44    1
