@<TRIPOS>MOLECULE
*****
 44 46 0 0 0
SMALL
USER_CHARGES

@<TRIPOS>ATOM
      1 C1         -2.2495    4.0625   -1.4949 C.3     1  LIG1        0.0000
      2 C2         -1.0384    3.1923   -1.2043 C.2     1  LIG1        0.0000
      3 C3         -0.7646    2.5228   -0.0484 C.2     1  LIG1        0.0000
      4 C4          0.4576    1.8176   -0.1463 C.2     1  LIG1        0.0000
      5 C5          1.0000    1.0000    1.0000 C.3     1  LIG1        0.0000
      6 N6          1.8512    1.8512    1.8512 N.4     1  LIG1        1.0000
      7 C7          1.3091    1.9588    3.2067 C.3     1  LIG1        0.0000
      8 C8          1.7538    3.3408    3.6207 C.3     1  LIG1        0.0000
      9 C9          1.0838    3.8011    4.8997 C.3     1  LIG1        0.0000
     10 C10         1.2421    4.0643    2.3992 C.3     1  LIG1        0.0000
     11 C11         1.9293    3.2287    1.3524 C.3     1  LIG1        0.0000
     12 C12         3.4430    3.3402    1.2489 C.3     1  LIG1        0.0000
     13 C13         4.0586    3.5315    2.6299 C.3     1  LIG1        0.0000
     14 C14         5.4035    2.8313    2.6740 C.3     1  LIG1        0.0000
     15 C15         4.3371    5.0127    2.8309 C.3     1  LIG1        0.0000
     16 C16         3.2329    3.0428    3.8133 C.3     1  LIG1        0.0000
     17 C17         1.1704    1.8812   -1.3012 C.2     1  LIG1        0.0000
     18 S18         0.2303    2.8929   -2.2963 S.3     1  LIG1        0.0000
     19 H           2.7714    1.4620    1.8930 H       1  LIG1        0.0000
     20 H           1.4906    3.3228    0.4588 H       1  LIG1        0.0000
     21 H          -2.8482    4.0787   -0.6941 H       1  LIG1        0.0000
     22 H          -1.9488    4.9928   -1.7051 H       1  LIG1        0.0000
     23 H          -2.7485    3.6888   -2.2767 H       1  LIG1        0.0000
     24 H          -1.3507    2.5295    0.7618 H       1  LIG1        0.0000
     25 H           0.2403    0.6405    1.5419 H       1  LIG1        0.0000
     26 H           1.5419    0.2403    0.6405 H       1  LIG1        0.0000
     27 H           1.6946    1.2588    3.8078 H       1  LIG1        0.0000
     28 H           0.3118    1.8843    3.2051 H       1  LIG1        0.0000
     29 H           1.4074    4.7177    5.1343 H       1  LIG1        0.0000
     30 H           0.0927    3.8210    4.7683 H       1  LIG1        0.0000
     31 H           1.3092    3.1683    5.6404 H       1  LIG1        0.0000
     32 H           1.5370    5.0195    2.3742 H       1  LIG1        0.0000
     33 H           0.2459    4.0209    2.3237 H       1  LIG1        0.0000
     34 H           3.8075    2.5042    0.8388 H       1  LIG1        0.0000
     35 H           3.6768    4.1234    0.6728 H       1  LIG1        0.0000
     36 H           5.9641    3.1374    1.9045 H       1  LIG1        0.0000
     37 H           5.8664    3.0524    3.5324 H       1  LIG1        0.0000
     38 H           5.2666    1.8425    2.6142 H       1  LIG1        0.0000
     39 H           4.8794    5.3569    2.0644 H       1  LIG1        0.0000
     40 H           3.4716    5.5113    2.8774 H       1  LIG1        0.0000
     41 H           4.8436    5.1439    3.6831 H       1  LIG1        0.0000
     42 H           3.3556    2.0550    3.9095 H       1  LIG1        0.0000
     43 H           3.5514    3.5007    4.6432 H       1  LIG1        0.0000
     44 H           2.0410    1.4385   -1.5157 H       1  LIG1        0.0000
@<TRIPOS>UNITY_ATOM_ATTR
6 1
charge 1
@<TRIPOS>BOND
     1     1     2    1
     2     2     3    2
     3     3     4    1
     4     4     5    1
     5     5     6    1
     6     6     7    1
     7     7     8    1
     8     8     9    1
     9     8    10    1
    10    10    11    1
    11    11     6    1
    12    11    12    1
    13    12    13    1
    14    13    14    1
    15    13    15    1
    16    13    16    1
    17    16     8    1
    18     4    17    2
    19    17    18    1
    20    18     2    1
    21     6    19    1
    22    11    20    1
    23     1    21    1
    24     1    22    1
    25     1    23    1
    26     3    24    1
    27     5    25    1
    28     5    26    1
    29     7    27    1
    30     7    28    1
    31     9    29    1
    32     9    30    1
    33     9    31    1
    34    10    32    1
    35    10    33    1
    36    12    34    1
    37    12    35    1
    38    14    36    1
    39    14    37    1
    40    14    38    1
    41    15    39    1
    42    15    40    1
    43    15    41    1
    44    16    42    1
    45    16    43    1
    46    17    44    1
