@<TRIPOS>MOLECULE
*****
 44 46 0 0 0
SMALL
USER_CHARGES

@<TRIPOS>ATOM
      1 C1         -1.2600    4.9550   -1.3266 C.3     1  LIG1        0.0000
      2 C2         -0.5611    3.6212   -1.1242 C.2     1  LIG1        0.0000
      3 C3         -0.1630    3.0720    0.0586 C.2     1  LIG1        0.0000
      4 C4          0.4576    1.8176   -0.1463 C.2     1  LIG1        0.0000
      5 C5          1.0000    1.0000    1.0000 C.3     1  LIG1        0.0000
      6 N6          1.8485    1.8485    1.8485 N.4     1  LIG1        1.0000
      7 C7          1.1434    2.6623    2.8432 C.3     1  LIG1        0.0000
      8 C8          2.1540    3.7546    3.0998 C.3     1  LIG1        0.0000
      9 C9          1.5606    4.8797    3.9325 C.3     1  LIG1        0.0000
     10 C10         2.1856    4.1041    1.6350 C.3     1  LIG1        0.0000
     11 C11         2.7028    2.7859    1.1183 C.3     1  LIG1        0.0000
     12 C12         4.1296    2.4832    1.5616 C.3     1  LIG1        0.0000
     13 C13         4.2745    2.2903    3.0669 C.3     1  LIG1        0.0000
     14 C14         5.7637    2.2588    3.3660 C.3     1  LIG1        0.0000
     15 C15         3.7704    0.9599    3.6174 C.3     1  LIG1        0.0000
     16 C16         3.5603    3.5119    3.6482 C.3     1  LIG1        0.0000
     17 C17         0.5773    1.3344   -1.4105 C.2     1  LIG1        0.0000
     18 S18        -0.1335    2.5467   -2.3711 S.3     1  LIG1        0.0000
     19 H           2.4565    1.2362    2.3539 H       1  LIG1        0.0000
     20 H           2.5917    2.7014    0.1280 H       1  LIG1        0.0000
     21 H          -1.3995    5.3961   -0.4400 H       1  LIG1        0.0000
     22 H          -0.6953    5.5427   -1.9061 H       1  LIG1        0.0000
     23 H          -2.1451    4.8041   -1.7668 H       1  LIG1        0.0000
     24 H          -0.2928    3.4997    0.9532 H       1  LIG1        0.0000
     25 H           0.2403    0.6405    1.5419 H       1  LIG1        0.0000
     26 H           1.5419    0.2403    0.6405 H       1  LIG1        0.0000
     27 H           0.9501    2.1397    3.6736 H       1  LIG1        0.0000
     28 H           0.2900    3.0319    2.4758 H       1  LIG1        0.0000
     29 H           2.2542    5.5841    4.0835 H       1  LIG1        0.0000
     30 H           0.7813    5.2775    3.4483 H       1  LIG1        0.0000
     31 H           1.2561    4.5175    4.8135 H       1  LIG1        0.0000
     32 H           2.8107    4.8596    1.4389 H       1  LIG1        0.0000
     33 H           1.2774    4.3215    1.2773 H       1  LIG1        0.0000
     34 H           4.4314    1.6461    1.1053 H       1  LIG1        0.0000
     35 H           4.7152    3.2444    1.2829 H       1  LIG1        0.0000
     36 H           6.1680    1.4392    2.9600 H       1  LIG1        0.0000
     37 H           6.1987    3.0718    2.9790 H       1  LIG1        0.0000
     38 H           5.9046    2.2446    4.3559 H       1  LIG1        0.0000
     39 H           4.2796    0.2100    3.1951 H       1  LIG1        0.0000
     40 H           3.9038    0.9371    4.6082 H       1  LIG1        0.0000
     41 H           2.7973    0.8605    3.4097 H       1  LIG1        0.0000
     42 H           3.4912    3.3898    4.6383 H       1  LIG1        0.0000
     43 H           4.1151    4.3200    3.4499 H       1  LIG1        0.0000
     44 H           0.9861    0.4712   -1.7065 H       1  LIG1        0.0000
@<TRIPOS>UNITY_ATOM_ATTR
6 1
charge 1
@<TRIPOS>BOND
     1     1     2    1
     2     2     3    2
     3     3     4    1
     4     4     5    1
     5     5     6    1
     6     6     7    1
     7     7     8    1
     8     8     9    1
     9     8    10    1
    10    10    11    1
    11    11     6    1
    12    11    12    1
    13    12    13    1
    14    13    14    1
    15    13    15    1
    16    13    16    1
    17    16     8    1
    18     4    17    2
    19    17    18    1
    20    18     2    1
    21     6    19    1
    22    11    20    1
    23     1    21    1
    24     1    22    1
    25     1    23    1
    26     3    24    1
    27     5    25    1
    28     5    26    1
    29     7    27    1
    30     7    28    1
    31     9    29    1
    32     9    30    1
    33     9    31    1
    34    10    32    1
    35    10    33    1
    36    12    34    1
    37    12    35    1
    38    14    36    1
    39    14    37    1
    40    14    38    1
    41    15    39    1
    42    15    40    1
    43    15    41    1
    44    16    42    1
    45    16    43    1
    46    17    44    1
