@<TRIPOS>MOLECULE
*****
 44 46 0 0 0
SMALL
USER_CHARGES

@<TRIPOS>ATOM
      1 C1          0.8535    3.0559   -3.6813 C.3     1  LIG1        0.0000
      2 C2          0.4533    2.7040   -2.2585 C.2     1  LIG1        0.0000
      3 C3          1.1425    1.9220   -1.3794 C.2     1  LIG1        0.0000
      4 C4          0.4576    1.8176   -0.1463 C.2     1  LIG1        0.0000
      5 C5          1.0000    1.0000    1.0000 C.3     1  LIG1        0.0000
      6 N6          1.8485    1.8485    1.8485 N.4     1  LIG1        1.0000
      7 C7          1.1724    2.9711    2.5055 C.3     1  LIG1        0.0000
      8 C8          2.3344    3.8960    2.7779 C.3     1  LIG1        0.0000
      9 C9          1.8621    5.2623    3.2485 C.3     1  LIG1        0.0000
     10 C10         2.7007    3.9071    1.3168 C.3     1  LIG1        0.0000
     11 C11         3.0019    2.4378    1.1672 C.3     1  LIG1        0.0000
     12 C12         4.2269    1.9907    1.9569 C.3     1  LIG1        0.0000
     13 C13         4.0570    2.1073    3.4673 C.3     1  LIG1        0.0000
     14 C14         5.4264    1.8780    4.0841 C.3     1  LIG1        0.0000
     15 C15         3.1861    1.0396    4.1220 C.3     1  LIG1        0.0000
     16 C16         3.5342    3.5330    3.6532 C.3     1  LIG1        0.0000
     17 C17        -0.7266    2.4644    0.0126 C.2     1  LIG1        0.0000
     18 S18        -0.9674    3.2323   -1.4874 S.3     1  LIG1        0.0000
     19 H           2.2092    1.2629    2.5744 H       1  LIG1        0.0000
     20 H           3.0526    2.1610    0.2076 H       1  LIG1        0.0000
     21 H           1.7286    2.6232   -3.8981 H       1  LIG1        0.0000
     22 H           0.1533    2.7279   -4.3154 H       1  LIG1        0.0000
     23 H           0.9421    4.0483   -3.7668 H       1  LIG1        0.0000
     24 H           2.0171    1.4806   -1.5800 H       1  LIG1        0.0000
     25 H           0.2403    0.6405    1.5419 H       1  LIG1        0.0000
     26 H           1.5419    0.2403    0.6405 H       1  LIG1        0.0000
     27 H           0.7259    2.6844    3.3531 H       1  LIG1        0.0000
     28 H           0.4988    3.3972    1.9016 H       1  LIG1        0.0000
     29 H           2.6542    5.8482    3.4193 H       1  LIG1        0.0000
     30 H           1.2865    5.6769    2.5436 H       1  LIG1        0.0000
     31 H           1.3347    5.1603    4.0920 H       1  LIG1        0.0000
     32 H           3.4998    4.4788    1.1306 H       1  LIG1        0.0000
     33 H           1.9397    4.1991    0.7374 H       1  LIG1        0.0000
     34 H           4.4153    1.0345    1.7331 H       1  LIG1        0.0000
     35 H           5.0040    2.5568    1.6818 H       1  LIG1        0.0000
     36 H           5.7081    0.9314    3.9277 H       1  LIG1        0.0000
     37 H           6.0894    2.4970    3.6630 H       1  LIG1        0.0000
     38 H           5.3829    2.0548    5.0673 H       1  LIG1        0.0000
     39 H           3.5866    0.1376    3.9605 H       1  LIG1        0.0000
     40 H           3.1334    1.2096    5.1060 H       1  LIG1        0.0000
     41 H           2.2672    1.0716    3.7286 H       1  LIG1        0.0000
     42 H           3.2657    3.6434    4.6102 H       1  LIG1        0.0000
     43 H           4.2776    4.1670    3.4403 H       1  LIG1        0.0000
     44 H          -1.3169    2.4846    0.8195 H       1  LIG1        0.0000
@<TRIPOS>UNITY_ATOM_ATTR
6 1
charge 1
@<TRIPOS>BOND
     1     1     2    1
     2     2     3    2
     3     3     4    1
     4     4     5    1
     5     5     6    1
     6     6     7    1
     7     7     8    1
     8     8     9    1
     9     8    10    1
    10    10    11    1
    11    11     6    1
    12    11    12    1
    13    12    13    1
    14    13    14    1
    15    13    15    1
    16    13    16    1
    17    16     8    1
    18     4    17    2
    19    17    18    1
    20    18     2    1
    21     6    19    1
    22    11    20    1
    23     1    21    1
    24     1    22    1
    25     1    23    1
    26     3    24    1
    27     5    25    1
    28     5    26    1
    29     7    27    1
    30     7    28    1
    31     9    29    1
    32     9    30    1
    33     9    31    1
    34    10    32    1
    35    10    33    1
    36    12    34    1
    37    12    35    1
    38    14    36    1
    39    14    37    1
    40    14    38    1
    41    15    39    1
    42    15    40    1
    43    15    41    1
    44    16    42    1
    45    16    43    1
    46    17    44    1
