@<TRIPOS>MOLECULE

  47   50
SMALL
USER_CHARGES
@<TRIPOS>ATOM
   1 C1           4.6979    -3.7671     1.4590 C.3          1    LIG   0.0000
   2 C2           4.2632    -2.3107     1.4454 C.3          1    LIG   0.0000
   3 C3           4.1112    -1.8408     0.0078 C.3          1    LIG   0.0000
   4 N4           3.6906    -0.4317    -0.0054 N.pl3        1    LIG   0.0000
   5 C5           4.5359     0.6328    -0.0165 C.2          1    LIG   0.0000
   6 C6           6.0550     0.5612    -0.0220 C.3          1    LIG   0.0000
   7 C7           3.7827     1.7646    -0.0274 C.2          1    LIG   0.0000
   8 C8           4.2924     3.1215    -0.0444 C.2          1    LIG   0.0000
   9 N9           5.5592     3.4570    -0.0481 N.2          1    LIG   0.0000
  10 N10          5.6199     4.7689    -0.0654 N.2          1    LIG   0.0000
  11 C11          4.3871     5.2195    -0.0714 C.2          1    LIG   0.0000
  12 C12          4.0059     6.6169    -0.0905 C.2          1    LIG   0.0000
  13 C13          2.7253     7.0766    -0.0969 C.2          1    LIG   0.0000
  14 C14          2.8356     8.4833    -0.1133 C.2          1    LIG   0.0000
  15 C15          4.1688     8.7586    -0.1140 C.2          1    LIG   0.0000
  16 C16          4.7823    10.1495    -0.1286 C.3          1    LIG   0.0000
  17 O17          4.8394     7.6310    -0.0996 O.2          1    LIG   0.0000
  18 O18          3.5554     4.2067    -0.0576 O.2          1    LIG   0.0000
  19 C19          2.4180     1.3976    -0.0224 C.ar         1    LIG   0.0000
  20 C20          1.1995     2.0721    -0.0129 C.ar         1    LIG   0.0000
  21 C21         -0.0116     1.3864     0.0079 C.ar         1    LIG   0.0000
  22 O22         -1.1948     2.0371     0.0243 O.3          1    LIG   0.0000
  23 C23         -2.3479     1.2086     0.0447 C.3          1    LIG   0.0000
  24 C24         -0.0064    -0.0037     0.0150 C.ar         1    LIG   0.0000
  25 C25          1.2076    -0.6814     0.0146 C.ar         1    LIG   0.0000
  26 C26          2.4069     0.0239    -0.0040 C.ar         1    LIG   0.0000
  27 H            4.7980    -4.0763     2.4048 H            1    LIG   0.0000
  28 H            4.0085    -4.3251     0.9971 H            1    LIG   0.0000
  29 H            5.5733    -3.8582     0.9842 H            1    LIG   0.0000
  30 H            3.3879    -2.2196     1.9202 H            1    LIG   0.0000
  31 H            4.9526    -1.7527     1.9073 H            1    LIG   0.0000
  32 H            4.9865    -1.9319    -0.4670 H            1    LIG   0.0000
  33 H            3.4218    -2.3988    -0.4541 H            1    LIG   0.0000
  34 H            6.4323     1.4873    -0.0302 H            1    LIG   0.0000
  35 H            6.3691     0.0806     0.7968 H            1    LIG   0.0000
  36 H            6.3626     0.0687    -0.8362 H            1    LIG   0.0000
  37 H            1.8855     6.5336    -0.0913 H            1    LIG   0.0000
  38 H            2.0856     9.1447    -0.1225 H            1    LIG   0.0000
  39 H            4.0542    10.8349    -0.1380 H            1    LIG   0.0000
  40 H            5.3464    10.2736     0.6878 H            1    LIG   0.0000
  41 H            5.3499    10.2549    -0.9451 H            1    LIG   0.0000
  42 H            1.1947     3.0721    -0.0213 H            1    LIG   0.0000
  43 H           -3.1686     1.7798     0.0558 H            1    LIG   0.0000
  44 H           -2.3562     0.6288    -0.7700 H            1    LIG   0.0000
  45 H           -2.3309     0.6337     0.8628 H            1    LIG   0.0000
  46 H           -0.8679    -0.5115     0.0203 H            1    LIG   0.0000
  47 H            1.2189    -1.6812     0.0277 H            1    LIG   0.0000
@<TRIPOS>BOND
   1        1        2 1
   2        2        3 1
   3        3        4 1
   4        4        5 1
   5        5        6 1
   6        5        7 2
   7        7        8 1
   8        8        9 2
   9        9       10 1
  10       10       11 2
  11       11       12 1
  12       12       13 2
  13       13       14 1
  14       14       15 2
  15       15       16 1
  16       15       17 1
  17       17       12 1
  18       11       18 1
  19       18        8 1
  20        7       19 1
  21       19       20 ar
  22       20       21 ar
  23       21       22 1
  24       22       23 1
  25       21       24 ar
  26       24       25 ar
  27       25       26 ar
  28       26       19 ar
  29       26        4 1
  30        1       27 1
  31        1       28 1
  32        1       29 1
  33        2       30 1
  34        2       31 1
  35        3       32 1
  36        3       33 1
  37        6       34 1
  38        6       35 1
  39        6       36 1
  40       13       37 1
  41       14       38 1
  42       16       39 1
  43       16       40 1
  44       16       41 1
  45       20       42 1
  46       23       43 1
  47       23       44 1
  48       23       45 1
  49       24       46 1
  50       25       47 1

@<TRIPOS>MOLECULE

  47   50
SMALL
USER_CHARGES
@<TRIPOS>ATOM
   1 C1           4.6979    -3.7671     1.4590 C.3          1    LIG   0.0000
   2 C2           4.2632    -2.3107     1.4454 C.3          1    LIG   0.0000
   3 C3           4.1112    -1.8408     0.0078 C.3          1    LIG   0.0000
   4 N4           3.6906    -0.4317    -0.0054 N.pl3        1    LIG   0.0000
   5 C5           4.5359     0.6328    -0.0165 C.2          1    LIG   0.0000
   6 C6           6.0550     0.5612    -0.0220 C.3          1    LIG   0.0000
   7 C7           3.7827     1.7646    -0.0274 C.2          1    LIG   0.0000
   8 C8           4.2924     3.1215    -0.0444 C.2          1    LIG   0.0000
   9 N9           5.5592     3.4570    -0.0481 N.2          1    LIG   0.0000
  10 N10          5.6199     4.7689    -0.0654 N.2          1    LIG   0.0000
  11 C11          4.3871     5.2195    -0.0714 C.2          1    LIG   0.0000
  12 C12          4.0059     6.6169    -0.0905 C.2          1    LIG   0.0000
  13 C13          4.8759     7.6630    -0.1047 C.2          1    LIG   0.0000
  14 C14          4.0666     8.8189    -0.1235 C.2          1    LIG   0.0000
  15 C15          2.7783     8.3793    -0.1205 C.2          1    LIG   0.0000
  16 C16          1.5435     9.2661    -0.1371 C.3          1    LIG   0.0000
  17 O17          2.7730     7.0674    -0.1015 O.2          1    LIG   0.0000
  18 O18          3.5554     4.2067    -0.0576 O.2          1    LIG   0.0000
  19 C19          2.4180     1.3976    -0.0224 C.ar         1    LIG   0.0000
  20 C20          1.1995     2.0721    -0.0129 C.ar         1    LIG   0.0000
  21 C21         -0.0116     1.3864     0.0079 C.ar         1    LIG   0.0000
  22 O22         -1.1948     2.0371     0.0243 O.3          1    LIG   0.0000
  23 C23         -2.3479     1.2086     0.0447 C.3          1    LIG   0.0000
  24 C24         -0.0064    -0.0037     0.0150 C.ar         1    LIG   0.0000
  25 C25          1.2076    -0.6814     0.0146 C.ar         1    LIG   0.0000
  26 C26          2.4069     0.0239    -0.0040 C.ar         1    LIG   0.0000
  27 H            4.7980    -4.0763     2.4048 H            1    LIG   0.0000
  28 H            4.0085    -4.3251     0.9971 H            1    LIG   0.0000
  29 H            5.5733    -3.8582     0.9842 H            1    LIG   0.0000
  30 H            3.3879    -2.2196     1.9202 H            1    LIG   0.0000
  31 H            4.9526    -1.7527     1.9073 H            1    LIG   0.0000
  32 H            4.9865    -1.9319    -0.4670 H            1    LIG   0.0000
  33 H            3.4218    -2.3988    -0.4541 H            1    LIG   0.0000
  34 H            6.4323     1.4873    -0.0302 H            1    LIG   0.0000
  35 H            6.3691     0.0806     0.7968 H            1    LIG   0.0000
  36 H            6.3626     0.0687    -0.8362 H            1    LIG   0.0000
  37 H            5.8751     7.6216    -0.1023 H            1    LIG   0.0000
  38 H            4.3770     9.7695    -0.1363 H            1    LIG   0.0000
  39 H            1.8228    10.2262    -0.1502 H            1    LIG   0.0000
  40 H            1.0003     9.0658    -0.9524 H            1    LIG   0.0000
  41 H            0.9953     9.0895     0.6804 H            1    LIG   0.0000
  42 H            1.1947     3.0721    -0.0213 H            1    LIG   0.0000
  43 H           -3.1686     1.7798     0.0558 H            1    LIG   0.0000
  44 H           -2.3562     0.6288    -0.7700 H            1    LIG   0.0000
  45 H           -2.3309     0.6337     0.8628 H            1    LIG   0.0000
  46 H           -0.8679    -0.5115     0.0203 H            1    LIG   0.0000
  47 H            1.2189    -1.6812     0.0277 H            1    LIG   0.0000
@<TRIPOS>BOND
   1        1        2 1
   2        2        3 1
   3        3        4 1
   4        4        5 1
   5        5        6 1
   6        5        7 2
   7        7        8 1
   8        8        9 2
   9        9       10 1
  10       10       11 2
  11       11       12 1
  12       12       13 2
  13       13       14 1
  14       14       15 2
  15       15       16 1
  16       15       17 1
  17       17       12 1
  18       11       18 1
  19       18        8 1
  20        7       19 1
  21       19       20 ar
  22       20       21 ar
  23       21       22 1
  24       22       23 1
  25       21       24 ar
  26       24       25 ar
  27       25       26 ar
  28       26       19 ar
  29       26        4 1
  30        1       27 1
  31        1       28 1
  32        1       29 1
  33        2       30 1
  34        2       31 1
  35        3       32 1
  36        3       33 1
  37        6       34 1
  38        6       35 1
  39        6       36 1
  40       13       37 1
  41       14       38 1
  42       16       39 1
  43       16       40 1
  44       16       41 1
  45       20       42 1
  46       23       43 1
  47       23       44 1
  48       23       45 1
  49       24       46 1
  50       25       47 1

@<TRIPOS>MOLECULE

  47   50
SMALL
USER_CHARGES
@<TRIPOS>ATOM
   1 C1           4.6979    -3.7671     1.4590 C.3          1    LIG   0.0000
   2 C2           4.2632    -2.3107     1.4454 C.3          1    LIG   0.0000
   3 C3           4.1112    -1.8408     0.0078 C.3          1    LIG   0.0000
   4 N4           3.6906    -0.4317    -0.0054 N.pl3        1    LIG   0.0000
   5 C5           4.5359     0.6328    -0.0165 C.2          1    LIG   0.0000
   6 C6           6.0550     0.5612    -0.0220 C.3          1    LIG   0.0000
   7 C7           3.7827     1.7646    -0.0274 C.2          1    LIG   0.0000
   8 C8           4.2924     3.1215    -0.0444 C.2          1    LIG   0.0000
   9 N9           5.0597     3.6330    -0.9756 N.2          1    LIG   0.0000
  10 N10          5.3090     4.8784    -0.6413 N.2          1    LIG   0.0000
  11 C11          4.6903     5.1127     0.4924 C.2          1    LIG   0.0000
  12 C12          4.7049     6.3707     1.2104 C.2          1    LIG   0.0000
  13 C13          5.3649     7.4908     0.8090 C.2          1    LIG   0.0000
  14 C14          5.0971     8.4561     1.8030 C.2          1    LIG   0.0000
  15 C15          4.2989     7.8438     2.7201 C.2          1    LIG   0.0000
  16 C16          3.7467     8.4902     3.9805 C.3          1    LIG   0.0000
  17 O17          4.0821     6.6064     2.3417 O.2          1    LIG   0.0000
  18 O18          4.0572     4.0298     0.8724 O.2          1    LIG   0.0000
  19 C19          2.4180     1.3976    -0.0224 C.ar         1    LIG   0.0000
  20 C20          1.1995     2.0721    -0.0129 C.ar         1    LIG   0.0000
  21 C21         -0.0116     1.3864     0.0079 C.ar         1    LIG   0.0000
  22 O22         -1.1948     2.0371     0.0243 O.3          1    LIG   0.0000
  23 C23         -2.3479     1.2086     0.0447 C.3          1    LIG   0.0000
  24 C24         -0.0064    -0.0037     0.0150 C.ar         1    LIG   0.0000
  25 C25          1.2076    -0.6814     0.0146 C.ar         1    LIG   0.0000
  26 C26          2.4069     0.0239    -0.0040 C.ar         1    LIG   0.0000
  27 H            4.7980    -4.0763     2.4048 H            1    LIG   0.0000
  28 H            4.0085    -4.3251     0.9971 H            1    LIG   0.0000
  29 H            5.5733    -3.8582     0.9842 H            1    LIG   0.0000
  30 H            3.3879    -2.2196     1.9202 H            1    LIG   0.0000
  31 H            4.9526    -1.7527     1.9073 H            1    LIG   0.0000
  32 H            4.9865    -1.9319    -0.4670 H            1    LIG   0.0000
  33 H            3.4218    -2.3988    -0.4541 H            1    LIG   0.0000
  34 H            6.4323     1.4873    -0.0302 H            1    LIG   0.0000
  35 H            6.3691     0.0806     0.7968 H            1    LIG   0.0000
  36 H            6.3626     0.0687    -0.8362 H            1    LIG   0.0000
  37 H            5.9209     7.6055    -0.0142 H            1    LIG   0.0000
  38 H            5.4271     9.3997     1.8285 H            1    LIG   0.0000
  39 H            4.0607     9.4381     4.0340 H            1    LIG   0.0000
  40 H            2.7472     8.4712     3.9544 H            1    LIG   0.0000
  41 H            4.0689     7.9865     4.7820 H            1    LIG   0.0000
  42 H            1.1947     3.0721    -0.0213 H            1    LIG   0.0000
  43 H           -3.1686     1.7798     0.0558 H            1    LIG   0.0000
  44 H           -2.3562     0.6288    -0.7700 H            1    LIG   0.0000
  45 H           -2.3309     0.6337     0.8628 H            1    LIG   0.0000
  46 H           -0.8679    -0.5115     0.0203 H            1    LIG   0.0000
  47 H            1.2189    -1.6812     0.0277 H            1    LIG   0.0000
@<TRIPOS>BOND
   1        1        2 1
   2        2        3 1
   3        3        4 1
   4        4        5 1
   5        5        6 1
   6        5        7 2
   7        7        8 1
   8        8        9 2
   9        9       10 1
  10       10       11 2
  11       11       12 1
  12       12       13 2
  13       13       14 1
  14       14       15 2
  15       15       16 1
  16       15       17 1
  17       17       12 1
  18       11       18 1
  19       18        8 1
  20        7       19 1
  21       19       20 ar
  22       20       21 ar
  23       21       22 1
  24       22       23 1
  25       21       24 ar
  26       24       25 ar
  27       25       26 ar
  28       26       19 ar
  29       26        4 1
  30        1       27 1
  31        1       28 1
  32        1       29 1
  33        2       30 1
  34        2       31 1
  35        3       32 1
  36        3       33 1
  37        6       34 1
  38        6       35 1
  39        6       36 1
  40       13       37 1
  41       14       38 1
  42       16       39 1
  43       16       40 1
  44       16       41 1
  45       20       42 1
  46       23       43 1
  47       23       44 1
  48       23       45 1
  49       24       46 1
  50       25       47 1

@<TRIPOS>MOLECULE

  47   50
SMALL
USER_CHARGES
@<TRIPOS>ATOM
   1 C1           4.6836    -3.7983    -1.4069 C.3          1    LIG   0.0000
   2 C2           4.2489    -2.3419    -1.4206 C.3          1    LIG   0.0000
   3 C3           4.1112    -1.8408     0.0078 C.3          1    LIG   0.0000
   4 N4           3.6906    -0.4317    -0.0054 N.pl3        1    LIG   0.0000
   5 C5           4.5359     0.6328    -0.0165 C.2          1    LIG   0.0000
   6 C6           6.0550     0.5612    -0.0220 C.3          1    LIG   0.0000
   7 C7           3.7827     1.7646    -0.0274 C.2          1    LIG   0.0000
   8 C8           4.2924     3.1215    -0.0444 C.2          1    LIG   0.0000
   9 N9           5.0589     3.6565     0.8742 N.2          1    LIG   0.0000
  10 N10          5.3096     4.8926     0.5079 N.2          1    LIG   0.0000
  11 C11          4.6914     5.0982    -0.6316 C.2          1    LIG   0.0000
  12 C12          4.7086     6.3368    -1.3826 C.2          1    LIG   0.0000
  13 C13          4.0653     6.5423    -2.5638 C.2          1    LIG   0.0000
  14 C14          4.3577     7.8764    -2.9188 C.2          1    LIG   0.0000
  15 C15          5.1498     8.3674    -1.9265 C.2          1    LIG   0.0000
  16 C16          5.7211     9.7751    -1.8688 C.3          1    LIG   0.0000
  17 O17          5.3408     7.4311    -1.0275 O.2          1    LIG   0.0000
  18 O18          4.0566     4.0068    -0.9833 O.2          1    LIG   0.0000
  19 C19          2.4180     1.3976    -0.0224 C.ar         1    LIG   0.0000
  20 C20          1.1995     2.0721    -0.0129 C.ar         1    LIG   0.0000
  21 C21         -0.0116     1.3864     0.0079 C.ar         1    LIG   0.0000
  22 O22         -1.1948     2.0371     0.0243 O.3          1    LIG   0.0000
  23 C23         -1.1131     3.4547     0.0188 C.3          1    LIG   0.0000
  24 C24         -0.0064    -0.0037     0.0150 C.ar         1    LIG   0.0000
  25 C25          1.2076    -0.6814     0.0146 C.ar         1    LIG   0.0000
  26 C26          2.4069     0.0239    -0.0040 C.ar         1    LIG   0.0000
  27 H            4.7742    -4.1280    -2.3466 H            1    LIG   0.0000
  28 H            5.5637    -3.8791    -0.9390 H            1    LIG   0.0000
  29 H            3.9989    -4.3460    -0.9261 H            1    LIG   0.0000
  30 H            4.9336    -1.7941    -1.9014 H            1    LIG   0.0000
  31 H            3.3689    -2.2611    -1.8885 H            1    LIG   0.0000
  32 H            3.4265    -2.3885     0.4886 H            1    LIG   0.0000
  33 H            4.9912    -1.9216     0.4758 H            1    LIG   0.0000
  34 H            6.4323     1.4873    -0.0302 H            1    LIG   0.0000
  35 H            6.3691     0.0806     0.7968 H            1    LIG   0.0000
  36 H            6.3626     0.0687    -0.8362 H            1    LIG   0.0000
  37 H            3.5051     5.8880    -3.0717 H            1    LIG   0.0000
  38 H            4.0460     8.3631    -3.7349 H            1    LIG   0.0000
  39 H            5.4255    10.2881    -2.6748 H            1    LIG   0.0000
  40 H            5.3937    10.2342    -1.0430 H            1    LIG   0.0000
  41 H            6.7199     9.7290    -1.8508 H            1    LIG   0.0000
  42 H            1.1947     3.0721    -0.0213 H            1    LIG   0.0000
  43 H           -2.0350     3.8418     0.0319 H            1    LIG   0.0000
  44 H           -0.6106     3.7628     0.8267 H            1    LIG   0.0000
  45 H           -0.6360     3.7579    -0.8061 H            1    LIG   0.0000
  46 H           -0.8679    -0.5115     0.0203 H            1    LIG   0.0000
  47 H            1.2189    -1.6812     0.0277 H            1    LIG   0.0000
@<TRIPOS>BOND
   1        1        2 1
   2        2        3 1
   3        3        4 1
   4        4        5 1
   5        5        6 1
   6        5        7 2
   7        7        8 1
   8        8        9 2
   9        9       10 1
  10       10       11 2
  11       11       12 1
  12       12       13 2
  13       13       14 1
  14       14       15 2
  15       15       16 1
  16       15       17 1
  17       17       12 1
  18       11       18 1
  19       18        8 1
  20        7       19 1
  21       19       20 ar
  22       20       21 ar
  23       21       22 1
  24       22       23 1
  25       21       24 ar
  26       24       25 ar
  27       25       26 ar
  28       26       19 ar
  29       26        4 1
  30        1       27 1
  31        1       28 1
  32        1       29 1
  33        2       30 1
  34        2       31 1
  35        3       32 1
  36        3       33 1
  37        6       34 1
  38        6       35 1
  39        6       36 1
  40       13       37 1
  41       14       38 1
  42       16       39 1
  43       16       40 1
  44       16       41 1
  45       20       42 1
  46       23       43 1
  47       23       44 1
  48       23       45 1
  49       24       46 1
  50       25       47 1

@<TRIPOS>MOLECULE

  47   50
SMALL
USER_CHARGES
@<TRIPOS>ATOM
   1 C1           4.6979    -3.7671     1.4590 C.3          1    LIG   0.0000
   2 C2           4.2632    -2.3107     1.4454 C.3          1    LIG   0.0000
   3 C3           4.1112    -1.8408     0.0078 C.3          1    LIG   0.0000
   4 N4           3.6906    -0.4317    -0.0054 N.pl3        1    LIG   0.0000
   5 C5           4.5359     0.6328    -0.0165 C.2          1    LIG   0.0000
   6 C6           6.0550     0.5612    -0.0220 C.3          1    LIG   0.0000
   7 C7           3.7827     1.7646    -0.0274 C.2          1    LIG   0.0000
   8 C8           4.2924     3.1215    -0.0444 C.2          1    LIG   0.0000
   9 N9           5.0589     3.6565     0.8742 N.2          1    LIG   0.0000
  10 N10          5.3096     4.8926     0.5079 N.2          1    LIG   0.0000
  11 C11          4.6914     5.0982    -0.6316 C.2          1    LIG   0.0000
  12 C12          4.7086     6.3368    -1.3826 C.2          1    LIG   0.0000
  13 C13          5.3704     7.4659    -1.0105 C.2          1    LIG   0.0000
  14 C14          5.1094     8.4033    -2.0325 C.2          1    LIG   0.0000
  15 C15          4.3154     7.7667    -2.9365 C.2          1    LIG   0.0000
  16 C16          3.7721     8.3779    -4.2182 C.3          1    LIG   0.0000
  17 O17          4.0944     6.5407    -2.5246 O.2          1    LIG   0.0000
  18 O18          4.0566     4.0068    -0.9833 O.2          1    LIG   0.0000
  19 C19          2.4180     1.3976    -0.0224 C.ar         1    LIG   0.0000
  20 C20          1.1995     2.0721    -0.0129 C.ar         1    LIG   0.0000
  21 C21         -0.0116     1.3864     0.0079 C.ar         1    LIG   0.0000
  22 O22         -1.1948     2.0371     0.0243 O.3          1    LIG   0.0000
  23 C23         -2.3479     1.2086     0.0447 C.3          1    LIG   0.0000
  24 C24         -0.0064    -0.0037     0.0150 C.ar         1    LIG   0.0000
  25 C25          1.2076    -0.6814     0.0146 C.ar         1    LIG   0.0000
  26 C26          2.4069     0.0239    -0.0040 C.ar         1    LIG   0.0000
  27 H            4.7980    -4.0763     2.4048 H            1    LIG   0.0000
  28 H            4.0085    -4.3251     0.9971 H            1    LIG   0.0000
  29 H            5.5733    -3.8582     0.9842 H            1    LIG   0.0000
  30 H            3.3879    -2.2196     1.9202 H            1    LIG   0.0000
  31 H            4.9526    -1.7527     1.9073 H            1    LIG   0.0000
  32 H            4.9865    -1.9319    -0.4670 H            1    LIG   0.0000
  33 H            3.4218    -2.3988    -0.4541 H            1    LIG   0.0000
  34 H            6.4323     1.4873    -0.0302 H            1    LIG   0.0000
  35 H            6.3691     0.0806     0.7968 H            1    LIG   0.0000
  36 H            6.3626     0.0687    -0.8362 H            1    LIG   0.0000
  37 H            5.9234     7.6024    -0.1885 H            1    LIG   0.0000
  38 H            5.4410     9.3454    -2.0826 H            1    LIG   0.0000
  39 H            4.0879     9.3235    -4.2965 H            1    LIG   0.0000
  40 H            4.0986     7.8513    -5.0031 H            1    LIG   0.0000
  41 H            2.7724     8.3609    -4.1979 H            1    LIG   0.0000
  42 H            1.1947     3.0721    -0.0213 H            1    LIG   0.0000
  43 H           -3.1686     1.7798     0.0558 H            1    LIG   0.0000
  44 H           -2.3562     0.6288    -0.7700 H            1    LIG   0.0000
  45 H           -2.3309     0.6337     0.8628 H            1    LIG   0.0000
  46 H           -0.8679    -0.5115     0.0203 H            1    LIG   0.0000
  47 H            1.2189    -1.6812     0.0277 H            1    LIG   0.0000
@<TRIPOS>BOND
   1        1        2 1
   2        2        3 1
   3        3        4 1
   4        4        5 1
   5        5        6 1
   6        5        7 2
   7        7        8 1
   8        8        9 2
   9        9       10 1
  10       10       11 2
  11       11       12 1
  12       12       13 2
  13       13       14 1
  14       14       15 2
  15       15       16 1
  16       15       17 1
  17       17       12 1
  18       11       18 1
  19       18        8 1
  20        7       19 1
  21       19       20 ar
  22       20       21 ar
  23       21       22 1
  24       22       23 1
  25       21       24 ar
  26       24       25 ar
  27       25       26 ar
  28       26       19 ar
  29       26        4 1
  30        1       27 1
  31        1       28 1
  32        1       29 1
  33        2       30 1
  34        2       31 1
  35        3       32 1
  36        3       33 1
  37        6       34 1
  38        6       35 1
  39        6       36 1
  40       13       37 1
  41       14       38 1
  42       16       39 1
  43       16       40 1
  44       16       41 1
  45       20       42 1
  46       23       43 1
  47       23       44 1
  48       23       45 1
  49       24       46 1
  50       25       47 1

@<TRIPOS>MOLECULE

  47   50
SMALL
USER_CHARGES
@<TRIPOS>ATOM
   1 C1           4.6979    -3.7671     1.4590 C.3          1    LIG   0.0000
   2 C2           4.2632    -2.3107     1.4454 C.3          1    LIG   0.0000
   3 C3           4.1112    -1.8408     0.0078 C.3          1    LIG   0.0000
   4 N4           3.6906    -0.4317    -0.0054 N.pl3        1    LIG   0.0000
   5 C5           4.5359     0.6328    -0.0165 C.2          1    LIG   0.0000
   6 C6           6.0550     0.5612    -0.0220 C.3          1    LIG   0.0000
   7 C7           3.7827     1.7646    -0.0274 C.2          1    LIG   0.0000
   8 C8           4.2924     3.1215    -0.0444 C.2          1    LIG   0.0000
   9 N9           3.5595     4.2079    -0.0585 N.2          1    LIG   0.0000
  10 N10          4.3776     5.2355    -0.0706 N.2          1    LIG   0.0000
  11 C11          5.6022     4.7632    -0.0643 C.2          1    LIG   0.0000
  12 C12          6.8091     5.5643    -0.0727 C.2          1    LIG   0.0000
  13 C13          8.0758     5.0673    -0.0658 C.2          1    LIG   0.0000
  14 C14          8.9188     6.1989    -0.0813 C.2          1    LIG   0.0000
  15 C15          8.0965     7.2836    -0.0977 C.2          1    LIG   0.0000
  16 C16          8.5503     8.7344    -0.1187 C.3          1    LIG   0.0000
  17 O17          6.8493     6.8762    -0.0928 O.2          1    LIG   0.0000
  18 O18          5.5615     3.4533    -0.0489 O.2          1    LIG   0.0000
  19 C19          2.4180     1.3976    -0.0224 C.ar         1    LIG   0.0000
  20 C20          1.1995     2.0721    -0.0129 C.ar         1    LIG   0.0000
  21 C21         -0.0116     1.3864     0.0079 C.ar         1    LIG   0.0000
  22 O22         -1.1948     2.0371     0.0243 O.3          1    LIG   0.0000
  23 C23         -2.3479     1.2086     0.0447 C.3          1    LIG   0.0000
  24 C24         -0.0064    -0.0037     0.0150 C.ar         1    LIG   0.0000
  25 C25          1.2076    -0.6814     0.0146 C.ar         1    LIG   0.0000
  26 C26          2.4069     0.0239    -0.0040 C.ar         1    LIG   0.0000
  27 H            4.7980    -4.0763     2.4048 H            1    LIG   0.0000
  28 H            4.0085    -4.3251     0.9971 H            1    LIG   0.0000
  29 H            5.5733    -3.8582     0.9842 H            1    LIG   0.0000
  30 H            3.3879    -2.2196     1.9202 H            1    LIG   0.0000
  31 H            4.9526    -1.7527     1.9073 H            1    LIG   0.0000
  32 H            4.9865    -1.9319    -0.4670 H            1    LIG   0.0000
  33 H            3.4218    -2.3988    -0.4541 H            1    LIG   0.0000
  34 H            6.4323     1.4873    -0.0302 H            1    LIG   0.0000
  35 H            6.3691     0.0806     0.7968 H            1    LIG   0.0000
  36 H            6.3626     0.0687    -0.8362 H            1    LIG   0.0000
  37 H            8.3505     4.1059    -0.0526 H            1    LIG   0.0000
  38 H            9.9188     6.2031    -0.0805 H            1    LIG   0.0000
  39 H            9.5496     8.7711    -0.1183 H            1    LIG   0.0000
  40 H            8.2006     9.1811    -0.9422 H            1    LIG   0.0000
  41 H            8.1991     9.2053     0.6906 H            1    LIG   0.0000
  42 H            1.1947     3.0721    -0.0213 H            1    LIG   0.0000
  43 H           -3.1686     1.7798     0.0558 H            1    LIG   0.0000
  44 H           -2.3562     0.6288    -0.7700 H            1    LIG   0.0000
  45 H           -2.3309     0.6337     0.8628 H            1    LIG   0.0000
  46 H           -0.8679    -0.5115     0.0203 H            1    LIG   0.0000
  47 H            1.2189    -1.6812     0.0277 H            1    LIG   0.0000
@<TRIPOS>BOND
   1        1        2 1
   2        2        3 1
   3        3        4 1
   4        4        5 1
   5        5        6 1
   6        5        7 2
   7        7        8 1
   8        8        9 2
   9        9       10 1
  10       10       11 2
  11       11       12 1
  12       12       13 2
  13       13       14 1
  14       14       15 2
  15       15       16 1
  16       15       17 1
  17       17       12 1
  18       11       18 1
  19       18        8 1
  20        7       19 1
  21       19       20 ar
  22       20       21 ar
  23       21       22 1
  24       22       23 1
  25       21       24 ar
  26       24       25 ar
  27       25       26 ar
  28       26       19 ar
  29       26        4 1
  30        1       27 1
  31        1       28 1
  32        1       29 1
  33        2       30 1
  34        2       31 1
  35        3       32 1
  36        3       33 1
  37        6       34 1
  38        6       35 1
  39        6       36 1
  40       13       37 1
  41       14       38 1
  42       16       39 1
  43       16       40 1
  44       16       41 1
  45       20       42 1
  46       23       43 1
  47       23       44 1
  48       23       45 1
  49       24       46 1
  50       25       47 1

@<TRIPOS>MOLECULE

  47   50
SMALL
USER_CHARGES
@<TRIPOS>ATOM
   1 C1           4.6979    -3.7671     1.4590 C.3          1    LIG   0.0000
   2 C2           4.2632    -2.3107     1.4454 C.3          1    LIG   0.0000
   3 C3           4.1112    -1.8408     0.0078 C.3          1    LIG   0.0000
   4 N4           3.6906    -0.4317    -0.0054 N.pl3        1    LIG   0.0000
   5 C5           4.5359     0.6328    -0.0165 C.2          1    LIG   0.0000
   6 C6           6.0550     0.5612    -0.0220 C.3          1    LIG   0.0000
   7 C7           3.7827     1.7646    -0.0274 C.2          1    LIG   0.0000
   8 C8           4.2924     3.1215    -0.0444 C.2          1    LIG   0.0000
   9 N9           3.5595     4.2079    -0.0585 N.2          1    LIG   0.0000
  10 N10          4.3776     5.2355    -0.0706 N.2          1    LIG   0.0000
  11 C11          5.6022     4.7632    -0.0643 C.2          1    LIG   0.0000
  12 C12          6.8091     5.5643    -0.0727 C.2          1    LIG   0.0000
  13 C13          6.8429     6.9244    -0.0887 C.2          1    LIG   0.0000
  14 C14          8.2132     7.2619    -0.0887 C.2          1    LIG   0.0000
  15 C15          8.8935     6.0830    -0.0713 C.2          1    LIG   0.0000
  16 C16         10.4069     5.9379    -0.0640 C.3          1    LIG   0.0000
  17 O17          8.0339     5.0920    -0.0615 O.2          1    LIG   0.0000
  18 O18          5.5615     3.4533    -0.0489 O.2          1    LIG   0.0000
  19 C19          2.4180     1.3976    -0.0224 C.ar         1    LIG   0.0000
  20 C20          1.1995     2.0721    -0.0129 C.ar         1    LIG   0.0000
  21 C21         -0.0116     1.3864     0.0079 C.ar         1    LIG   0.0000
  22 O22         -1.1948     2.0371     0.0243 O.3          1    LIG   0.0000
  23 C23         -2.3479     1.2086     0.0447 C.3          1    LIG   0.0000
  24 C24         -0.0064    -0.0037     0.0150 C.ar         1    LIG   0.0000
  25 C25          1.2076    -0.6814     0.0146 C.ar         1    LIG   0.0000
  26 C26          2.4069     0.0239    -0.0040 C.ar         1    LIG   0.0000
  27 H            4.7980    -4.0763     2.4048 H            1    LIG   0.0000
  28 H            4.0085    -4.3251     0.9971 H            1    LIG   0.0000
  29 H            5.5733    -3.8582     0.9842 H            1    LIG   0.0000
  30 H            3.3879    -2.2196     1.9202 H            1    LIG   0.0000
  31 H            4.9526    -1.7527     1.9073 H            1    LIG   0.0000
  32 H            4.9865    -1.9319    -0.4670 H            1    LIG   0.0000
  33 H            3.4218    -2.3988    -0.4541 H            1    LIG   0.0000
  34 H            6.4323     1.4873    -0.0302 H            1    LIG   0.0000
  35 H            6.3691     0.0806     0.7968 H            1    LIG   0.0000
  36 H            6.3626     0.0687    -0.8362 H            1    LIG   0.0000
  37 H            6.0635     7.5509    -0.0984 H            1    LIG   0.0000
  38 H            8.6053     8.1818    -0.0992 H            1    LIG   0.0000
  39 H           10.8287     6.8445    -0.0743 H            1    LIG   0.0000
  40 H           10.6908     5.4475     0.7600 H            1    LIG   0.0000
  41 H           10.6966     5.4262    -0.8729 H            1    LIG   0.0000
  42 H            1.1947     3.0721    -0.0213 H            1    LIG   0.0000
  43 H           -3.1686     1.7798     0.0558 H            1    LIG   0.0000
  44 H           -2.3562     0.6288    -0.7700 H            1    LIG   0.0000
  45 H           -2.3309     0.6337     0.8628 H            1    LIG   0.0000
  46 H           -0.8679    -0.5115     0.0203 H            1    LIG   0.0000
  47 H            1.2189    -1.6812     0.0277 H            1    LIG   0.0000
@<TRIPOS>BOND
   1        1        2 1
   2        2        3 1
   3        3        4 1
   4        4        5 1
   5        5        6 1
   6        5        7 2
   7        7        8 1
   8        8        9 2
   9        9       10 1
  10       10       11 2
  11       11       12 1
  12       12       13 2
  13       13       14 1
  14       14       15 2
  15       15       16 1
  16       15       17 1
  17       17       12 1
  18       11       18 1
  19       18        8 1
  20        7       19 1
  21       19       20 ar
  22       20       21 ar
  23       21       22 1
  24       22       23 1
  25       21       24 ar
  26       24       25 ar
  27       25       26 ar
  28       26       19 ar
  29       26        4 1
  30        1       27 1
  31        1       28 1
  32        1       29 1
  33        2       30 1
  34        2       31 1
  35        3       32 1
  36        3       33 1
  37        6       34 1
  38        6       35 1
  39        6       36 1
  40       13       37 1
  41       14       38 1
  42       16       39 1
  43       16       40 1
  44       16       41 1
  45       20       42 1
  46       23       43 1
  47       23       44 1
  48       23       45 1
  49       24       46 1
  50       25       47 1

@<TRIPOS>MOLECULE

  47   50
SMALL
USER_CHARGES
@<TRIPOS>ATOM
   1 C1           4.6836    -3.7983    -1.4069 C.3          1    LIG   0.0000
   2 C2           4.2489    -2.3419    -1.4206 C.3          1    LIG   0.0000
   3 C3           4.1112    -1.8408     0.0078 C.3          1    LIG   0.0000
   4 N4           3.6906    -0.4317    -0.0054 N.pl3        1    LIG   0.0000
   5 C5           4.5359     0.6328    -0.0165 C.2          1    LIG   0.0000
   6 C6           6.0550     0.5612    -0.0220 C.3          1    LIG   0.0000
   7 C7           3.7827     1.7646    -0.0274 C.2          1    LIG   0.0000
   8 C8           4.2924     3.1215    -0.0444 C.2          1    LIG   0.0000
   9 N9           4.0590     4.0320     0.8690 N.2          1    LIG   0.0000
  10 N10          4.6884     5.1259     0.5053 N.2          1    LIG   0.0000
  11 C11          5.2990     4.8700    -0.6281 C.2          1    LIG   0.0000
  12 C12          6.1102     5.8105    -1.3737 C.2          1    LIG   0.0000
  13 C13          5.8619     6.2161    -2.6485 C.2          1    LIG   0.0000
  14 C14          6.8972     7.1238    -2.9578 C.2          1    LIG   0.0000
  15 C15          7.6832     7.1939    -1.8486 C.2          1    LIG   0.0000
  16 C16          8.9309     8.0505    -1.7043 C.3          1    LIG   0.0000
  17 O17          7.1912     6.4040    -0.9238 O.2          1    LIG   0.0000
  18 O18          5.0597     3.6301    -0.9789 O.2          1    LIG   0.0000
  19 C19          2.4180     1.3976    -0.0224 C.ar         1    LIG   0.0000
  20 C20          1.1995     2.0721    -0.0129 C.ar         1    LIG   0.0000
  21 C21         -0.0116     1.3864     0.0079 C.ar         1    LIG   0.0000
  22 O22         -1.1948     2.0371     0.0243 O.3          1    LIG   0.0000
  23 C23         -2.3479     1.2086     0.0447 C.3          1    LIG   0.0000
  24 C24         -0.0064    -0.0037     0.0150 C.ar         1    LIG   0.0000
  25 C25          1.2076    -0.6814     0.0146 C.ar         1    LIG   0.0000
  26 C26          2.4069     0.0239    -0.0040 C.ar         1    LIG   0.0000
  27 H            4.7742    -4.1280    -2.3466 H            1    LIG   0.0000
  28 H            5.5637    -3.8791    -0.9390 H            1    LIG   0.0000
  29 H            3.9989    -4.3460    -0.9261 H            1    LIG   0.0000
  30 H            4.9336    -1.7941    -1.9014 H            1    LIG   0.0000
  31 H            3.3689    -2.2611    -1.8885 H            1    LIG   0.0000
  32 H            3.4265    -2.3885     0.4886 H            1    LIG   0.0000
  33 H            4.9912    -1.9216     0.4758 H            1    LIG   0.0000
  34 H            6.4323     1.4873    -0.0302 H            1    LIG   0.0000
  35 H            6.3691     0.0806     0.7968 H            1    LIG   0.0000
  36 H            6.3626     0.0687    -0.8362 H            1    LIG   0.0000
  37 H            5.1072     5.9318    -3.2398 H            1    LIG   0.0000
  38 H            7.0271     7.6164    -3.8183 H            1    LIG   0.0000
  39 H            9.0875     8.5569    -2.5523 H            1    LIG   0.0000
  40 H            8.8076     8.6946    -0.9493 H            1    LIG   0.0000
  41 H            9.7184     7.4635    -1.5164 H            1    LIG   0.0000
  42 H            1.1947     3.0721    -0.0213 H            1    LIG   0.0000
  43 H           -3.1686     1.7798     0.0558 H            1    LIG   0.0000
  44 H           -2.3562     0.6288    -0.7700 H            1    LIG   0.0000
  45 H           -2.3309     0.6337     0.8628 H            1    LIG   0.0000
  46 H           -0.8679    -0.5115     0.0203 H            1    LIG   0.0000
  47 H            1.2189    -1.6812     0.0277 H            1    LIG   0.0000
@<TRIPOS>BOND
   1        1        2 1
   2        2        3 1
   3        3        4 1
   4        4        5 1
   5        5        6 1
   6        5        7 2
   7        7        8 1
   8        8        9 2
   9        9       10 1
  10       10       11 2
  11       11       12 1
  12       12       13 2
  13       13       14 1
  14       14       15 2
  15       15       16 1
  16       15       17 1
  17       17       12 1
  18       11       18 1
  19       18        8 1
  20        7       19 1
  21       19       20 ar
  22       20       21 ar
  23       21       22 1
  24       22       23 1
  25       21       24 ar
  26       24       25 ar
  27       25       26 ar
  28       26       19 ar
  29       26        4 1
  30        1       27 1
  31        1       28 1
  32        1       29 1
  33        2       30 1
  34        2       31 1
  35        3       32 1
  36        3       33 1
  37        6       34 1
  38        6       35 1
  39        6       36 1
  40       13       37 1
  41       14       38 1
  42       16       39 1
  43       16       40 1
  44       16       41 1
  45       20       42 1
  46       23       43 1
  47       23       44 1
  48       23       45 1
  49       24       46 1
  50       25       47 1

@<TRIPOS>MOLECULE

  47   50
SMALL
USER_CHARGES
@<TRIPOS>ATOM
   1 C1           4.6979    -3.7671     1.4590 C.3          1    LIG   0.0000
   2 C2           4.2632    -2.3107     1.4454 C.3          1    LIG   0.0000
   3 C3           4.1112    -1.8408     0.0078 C.3          1    LIG   0.0000
   4 N4           3.6906    -0.4317    -0.0054 N.pl3        1    LIG   0.0000
   5 C5           4.5359     0.6328    -0.0165 C.2          1    LIG   0.0000
   6 C6           6.0550     0.5612    -0.0220 C.3          1    LIG   0.0000
   7 C7           3.7827     1.7646    -0.0274 C.2          1    LIG   0.0000
   8 C8           4.2924     3.1215    -0.0444 C.2          1    LIG   0.0000
   9 N9           4.0590     4.0320     0.8690 N.2          1    LIG   0.0000
  10 N10          4.6884     5.1259     0.5053 N.2          1    LIG   0.0000
  11 C11          5.2990     4.8700    -0.6281 C.2          1    LIG   0.0000
  12 C12          6.1102     5.8105    -1.3737 C.2          1    LIG   0.0000
  13 C13          7.4259     5.6388    -1.6751 C.2          1    LIG   0.0000
  14 C14          7.7932     6.7899    -2.4041 C.2          1    LIG   0.0000
  15 C15          6.6738     7.5602    -2.4849 C.2          1    LIG   0.0000
  16 C16          6.5786     8.9077    -3.1824 C.3          1    LIG   0.0000
  17 O17          5.6899     6.9530    -1.8647 O.2          1    LIG   0.0000
  18 O18          5.0597     3.6301    -0.9789 O.2          1    LIG   0.0000
  19 C19          2.4180     1.3976    -0.0224 C.ar         1    LIG   0.0000
  20 C20          1.1995     2.0721    -0.0129 C.ar         1    LIG   0.0000
  21 C21         -0.0116     1.3864     0.0079 C.ar         1    LIG   0.0000
  22 O22         -1.1948     2.0371     0.0243 O.3          1    LIG   0.0000
  23 C23         -1.1131     3.4547     0.0188 C.3          1    LIG   0.0000
  24 C24         -0.0064    -0.0037     0.0150 C.ar         1    LIG   0.0000
  25 C25          1.2076    -0.6814     0.0146 C.ar         1    LIG   0.0000
  26 C26          2.4069     0.0239    -0.0040 C.ar         1    LIG   0.0000
  27 H            4.7980    -4.0763     2.4048 H            1    LIG   0.0000
  28 H            4.0085    -4.3251     0.9971 H            1    LIG   0.0000
  29 H            5.5733    -3.8582     0.9842 H            1    LIG   0.0000
  30 H            3.3879    -2.2196     1.9202 H            1    LIG   0.0000
  31 H            4.9526    -1.7527     1.9073 H            1    LIG   0.0000
  32 H            4.9865    -1.9319    -0.4670 H            1    LIG   0.0000
  33 H            3.4218    -2.3988    -0.4541 H            1    LIG   0.0000
  34 H            6.4323     1.4873    -0.0302 H            1    LIG   0.0000
  35 H            6.3691     0.0806     0.7968 H            1    LIG   0.0000
  36 H            6.3626     0.0687    -0.8362 H            1    LIG   0.0000
  37 H            8.0080     4.8628    -1.4320 H            1    LIG   0.0000
  38 H            8.6943     6.9979    -2.7846 H            1    LIG   0.0000
  39 H            7.4678     9.1436    -3.5744 H            1    LIG   0.0000
  40 H            5.8956     8.8583    -3.9111 H            1    LIG   0.0000
  41 H            6.3099     9.6074    -2.5205 H            1    LIG   0.0000
  42 H            1.1947     3.0721    -0.0213 H            1    LIG   0.0000
  43 H           -2.0350     3.8418     0.0319 H            1    LIG   0.0000
  44 H           -0.6106     3.7628     0.8267 H            1    LIG   0.0000
  45 H           -0.6360     3.7579    -0.8061 H            1    LIG   0.0000
  46 H           -0.8679    -0.5115     0.0203 H            1    LIG   0.0000
  47 H            1.2189    -1.6812     0.0277 H            1    LIG   0.0000
@<TRIPOS>BOND
   1        1        2 1
   2        2        3 1
   3        3        4 1
   4        4        5 1
   5        5        6 1
   6        5        7 2
   7        7        8 1
   8        8        9 2
   9        9       10 1
  10       10       11 2
  11       11       12 1
  12       12       13 2
  13       13       14 1
  14       14       15 2
  15       15       16 1
  16       15       17 1
  17       17       12 1
  18       11       18 1
  19       18        8 1
  20        7       19 1
  21       19       20 ar
  22       20       21 ar
  23       21       22 1
  24       22       23 1
  25       21       24 ar
  26       24       25 ar
  27       25       26 ar
  28       26       19 ar
  29       26        4 1
  30        1       27 1
  31        1       28 1
  32        1       29 1
  33        2       30 1
  34        2       31 1
  35        3       32 1
  36        3       33 1
  37        6       34 1
  38        6       35 1
  39        6       36 1
  40       13       37 1
  41       14       38 1
  42       16       39 1
  43       16       40 1
  44       16       41 1
  45       20       42 1
  46       23       43 1
  47       23       44 1
  48       23       45 1
  49       24       46 1
  50       25       47 1

@<TRIPOS>MOLECULE

  47   50
SMALL
USER_CHARGES
@<TRIPOS>ATOM
   1 C1           4.6979    -3.7671     1.4590 C.3          1    LIG   0.0000
   2 C2           4.2632    -2.3107     1.4454 C.3          1    LIG   0.0000
   3 C3           4.1112    -1.8408     0.0078 C.3          1    LIG   0.0000
   4 N4           3.6906    -0.4317    -0.0054 N.pl3        1    LIG   0.0000
   5 C5           4.5359     0.6328    -0.0165 C.2          1    LIG   0.0000
   6 C6           6.0550     0.5612    -0.0220 C.3          1    LIG   0.0000
   7 C7           3.7827     1.7646    -0.0274 C.2          1    LIG   0.0000
   8 C8           4.2924     3.1215    -0.0444 C.2          1    LIG   0.0000
   9 N9           4.0590     4.0320     0.8690 N.2          1    LIG   0.0000
  10 N10          4.6884     5.1259     0.5053 N.2          1    LIG   0.0000
  11 C11          5.2990     4.8700    -0.6281 C.2          1    LIG   0.0000
  12 C12          6.1102     5.8105    -1.3737 C.2          1    LIG   0.0000
  13 C13          6.3539     7.0966    -1.0024 C.2          1    LIG   0.0000
  14 C14          7.1827     7.6248    -2.0151 C.2          1    LIG   0.0000
  15 C15          7.3730     6.6185    -2.9119 C.2          1    LIG   0.0000
  16 C16          8.2038     6.7138    -4.1816 C.3          1    LIG   0.0000
  17 O17          6.7248     5.5530    -2.5046 O.2          1    LIG   0.0000
  18 O18          5.0597     3.6301    -0.9789 O.2          1    LIG   0.0000
  19 C19          2.4180     1.3976    -0.0224 C.ar         1    LIG   0.0000
  20 C20          1.1995     2.0721    -0.0129 C.ar         1    LIG   0.0000
  21 C21         -0.0116     1.3864     0.0079 C.ar         1    LIG   0.0000
  22 O22         -1.1948     2.0371     0.0243 O.3          1    LIG   0.0000
  23 C23         -2.3479     1.2086     0.0447 C.3          1    LIG   0.0000
  24 C24         -0.0064    -0.0037     0.0150 C.ar         1    LIG   0.0000
  25 C25          1.2076    -0.6814     0.0146 C.ar         1    LIG   0.0000
  26 C26          2.4069     0.0239    -0.0040 C.ar         1    LIG   0.0000
  27 H            4.7980    -4.0763     2.4048 H            1    LIG   0.0000
  28 H            4.0085    -4.3251     0.9971 H            1    LIG   0.0000
  29 H            5.5733    -3.8582     0.9842 H            1    LIG   0.0000
  30 H            3.3879    -2.2196     1.9202 H            1    LIG   0.0000
  31 H            4.9526    -1.7527     1.9073 H            1    LIG   0.0000
  32 H            4.9865    -1.9319    -0.4670 H            1    LIG   0.0000
  33 H            3.4218    -2.3988    -0.4541 H            1    LIG   0.0000
  34 H            6.4323     1.4873    -0.0302 H            1    LIG   0.0000
  35 H            6.3691     0.0806     0.7968 H            1    LIG   0.0000
  36 H            6.3626     0.0687    -0.8362 H            1    LIG   0.0000
  37 H            6.0177     7.5670    -0.1865 H            1    LIG   0.0000
  38 H            7.5552     8.5516    -2.0641 H            1    LIG   0.0000
  39 H            8.5908     7.6326    -4.2585 H            1    LIG   0.0000
  40 H            8.9438     6.0422    -4.1469 H            1    LIG   0.0000
  41 H            7.6231     6.5292    -4.9745 H            1    LIG   0.0000
  42 H            1.1947     3.0721    -0.0213 H            1    LIG   0.0000
  43 H           -3.1686     1.7798     0.0558 H            1    LIG   0.0000
  44 H           -2.3562     0.6288    -0.7700 H            1    LIG   0.0000
  45 H           -2.3309     0.6337     0.8628 H            1    LIG   0.0000
  46 H           -0.8679    -0.5115     0.0203 H            1    LIG   0.0000
  47 H            1.2189    -1.6812     0.0277 H            1    LIG   0.0000
@<TRIPOS>BOND
   1        1        2 1
   2        2        3 1
   3        3        4 1
   4        4        5 1
   5        5        6 1
   6        5        7 2
   7        7        8 1
   8        8        9 2
   9        9       10 1
  10       10       11 2
  11       11       12 1
  12       12       13 2
  13       13       14 1
  14       14       15 2
  15       15       16 1
  16       15       17 1
  17       17       12 1
  18       11       18 1
  19       18        8 1
  20        7       19 1
  21       19       20 ar
  22       20       21 ar
  23       21       22 1
  24       22       23 1
  25       21       24 ar
  26       24       25 ar
  27       25       26 ar
  28       26       19 ar
  29       26        4 1
  30        1       27 1
  31        1       28 1
  32        1       29 1
  33        2       30 1
  34        2       31 1
  35        3       32 1
  36        3       33 1
  37        6       34 1
  38        6       35 1
  39        6       36 1
  40       13       37 1
  41       14       38 1
  42       16       39 1
  43       16       40 1
  44       16       41 1
  45       20       42 1
  46       23       43 1
  47       23       44 1
  48       23       45 1
  49       24       46 1
  50       25       47 1

@<TRIPOS>MOLECULE

  47   50
SMALL
USER_CHARGES
@<TRIPOS>ATOM
   1 C1           4.6979    -3.7671     1.4590 C.3          1    LIG   0.0000
   2 C2           4.2632    -2.3107     1.4454 C.3          1    LIG   0.0000
   3 C3           4.1112    -1.8408     0.0078 C.3          1    LIG   0.0000
   4 N4           3.6906    -0.4317    -0.0054 N.pl3        1    LIG   0.0000
   5 C5           4.5359     0.6328    -0.0165 C.2          1    LIG   0.0000
   6 C6           6.0550     0.5612    -0.0220 C.3          1    LIG   0.0000
   7 C7           3.7827     1.7646    -0.0274 C.2          1    LIG   0.0000
   8 C8           4.2924     3.1215    -0.0444 C.2          1    LIG   0.0000
   9 N9           4.0599     4.0084    -0.9808 N.2          1    LIG   0.0000
  10 N10          4.6879     5.1117    -0.6438 N.2          1    LIG   0.0000
  11 C11          5.2979     4.8845     0.4960 C.2          1    LIG   0.0000
  12 C12          6.1065     5.8444     1.2193 C.2          1    LIG   0.0000
  13 C13          6.7358     5.6015     2.4010 C.2          1    LIG   0.0000
  14 C14          7.3967     6.8058     2.7242 C.2          1    LIG   0.0000
  15 C15          7.1154     7.6748     1.7149 C.2          1    LIG   0.0000
  16 C16          7.6115     9.1088     1.6216 C.3          1    LIG   0.0000
  17 O17          6.3479     7.0762     0.8351 O.2          1    LIG   0.0000
  18 O18          5.0603     3.6532     0.8767 O.2          1    LIG   0.0000
  19 C19          2.4180     1.3976    -0.0224 C.ar         1    LIG   0.0000
  20 C20          1.1995     2.0721    -0.0129 C.ar         1    LIG   0.0000
  21 C21         -0.0116     1.3864     0.0079 C.ar         1    LIG   0.0000
  22 O22         -1.1948     2.0371     0.0243 O.3          1    LIG   0.0000
  23 C23         -1.1131     3.4547     0.0188 C.3          1    LIG   0.0000
  24 C24         -0.0064    -0.0037     0.0150 C.ar         1    LIG   0.0000
  25 C25          1.2076    -0.6814     0.0146 C.ar         1    LIG   0.0000
  26 C26          2.4069     0.0239    -0.0040 C.ar         1    LIG   0.0000
  27 H            4.7980    -4.0763     2.4048 H            1    LIG   0.0000
  28 H            4.0085    -4.3251     0.9971 H            1    LIG   0.0000
  29 H            5.5733    -3.8582     0.9842 H            1    LIG   0.0000
  30 H            3.3879    -2.2196     1.9202 H            1    LIG   0.0000
  31 H            4.9526    -1.7527     1.9073 H            1    LIG   0.0000
  32 H            4.9865    -1.9319    -0.4670 H            1    LIG   0.0000
  33 H            3.4218    -2.3988    -0.4541 H            1    LIG   0.0000
  34 H            6.4323     1.4873    -0.0302 H            1    LIG   0.0000
  35 H            6.3691     0.0806     0.7968 H            1    LIG   0.0000
  36 H            6.3626     0.0687    -0.8362 H            1    LIG   0.0000
  37 H            6.7309     4.7516     2.9278 H            1    LIG   0.0000
  38 H            7.9584     6.9847     3.5319 H            1    LIG   0.0000
  39 H            8.1783     9.3180     2.4184 H            1    LIG   0.0000
  40 H            8.1533     9.2206     0.7885 H            1    LIG   0.0000
  41 H            6.8292     9.7312     1.5964 H            1    LIG   0.0000
  42 H            1.1947     3.0721    -0.0213 H            1    LIG   0.0000
  43 H           -2.0350     3.8418     0.0319 H            1    LIG   0.0000
  44 H           -0.6106     3.7628     0.8267 H            1    LIG   0.0000
  45 H           -0.6360     3.7579    -0.8061 H            1    LIG   0.0000
  46 H           -0.8679    -0.5115     0.0203 H            1    LIG   0.0000
  47 H            1.2189    -1.6812     0.0277 H            1    LIG   0.0000
@<TRIPOS>BOND
   1        1        2 1
   2        2        3 1
   3        3        4 1
   4        4        5 1
   5        5        6 1
   6        5        7 2
   7        7        8 1
   8        8        9 2
   9        9       10 1
  10       10       11 2
  11       11       12 1
  12       12       13 2
  13       13       14 1
  14       14       15 2
  15       15       16 1
  16       15       17 1
  17       17       12 1
  18       11       18 1
  19       18        8 1
  20        7       19 1
  21       19       20 ar
  22       20       21 ar
  23       21       22 1
  24       22       23 1
  25       21       24 ar
  26       24       25 ar
  27       25       26 ar
  28       26       19 ar
  29       26        4 1
  30        1       27 1
  31        1       28 1
  32        1       29 1
  33        2       30 1
  34        2       31 1
  35        3       32 1
  36        3       33 1
  37        6       34 1
  38        6       35 1
  39        6       36 1
  40       13       37 1
  41       14       38 1
  42       16       39 1
  43       16       40 1
  44       16       41 1
  45       20       42 1
  46       23       43 1
  47       23       44 1
  48       23       45 1
  49       24       46 1
  50       25       47 1

@<TRIPOS>MOLECULE

  47   50
SMALL
USER_CHARGES
@<TRIPOS>ATOM
   1 C1           4.6836    -3.7983    -1.4069 C.3          1    LIG   0.0000
   2 C2           4.2489    -2.3419    -1.4206 C.3          1    LIG   0.0000
   3 C3           4.1112    -1.8408     0.0078 C.3          1    LIG   0.0000
   4 N4           3.6906    -0.4317    -0.0054 N.pl3        1    LIG   0.0000
   5 C5           4.5359     0.6328    -0.0165 C.2          1    LIG   0.0000
   6 C6           6.0550     0.5612    -0.0220 C.3          1    LIG   0.0000
   7 C7           3.7827     1.7646    -0.0274 C.2          1    LIG   0.0000
   8 C8           4.2924     3.1215    -0.0444 C.2          1    LIG   0.0000
   9 N9           4.0599     4.0084    -0.9808 N.2          1    LIG   0.0000
  10 N10          4.6879     5.1117    -0.6438 N.2          1    LIG   0.0000
  11 C11          5.2979     4.8845     0.4960 C.2          1    LIG   0.0000
  12 C12          6.1065     5.8444     1.2193 C.2          1    LIG   0.0000
  13 C13          5.8558     6.2806     2.4835 C.2          1    LIG   0.0000
  14 C14          6.8923     7.1932     2.7739 C.2          1    LIG   0.0000
  15 C15          7.6829     7.2332     1.6665 C.2          1    LIG   0.0000
  16 C16          8.9341     8.0817     1.5061 C.3          1    LIG   0.0000
  17 O17          7.1922     6.4217     0.7599 O.2          1    LIG   0.0000
  18 O18          5.0603     3.6532     0.8767 O.2          1    LIG   0.0000
  19 C19          2.4180     1.3976    -0.0224 C.ar         1    LIG   0.0000
  20 C20          1.1995     2.0721    -0.0129 C.ar         1    LIG   0.0000
  21 C21         -0.0116     1.3864     0.0079 C.ar         1    LIG   0.0000
  22 O22         -1.1948     2.0371     0.0243 O.3          1    LIG   0.0000
  23 C23         -2.3479     1.2086     0.0447 C.3          1    LIG   0.0000
  24 C24         -0.0064    -0.0037     0.0150 C.ar         1    LIG   0.0000
  25 C25          1.2076    -0.6814     0.0146 C.ar         1    LIG   0.0000
  26 C26          2.4069     0.0239    -0.0040 C.ar         1    LIG   0.0000
  27 H            4.7742    -4.1280    -2.3466 H            1    LIG   0.0000
  28 H            5.5637    -3.8791    -0.9390 H            1    LIG   0.0000
  29 H            3.9989    -4.3460    -0.9261 H            1    LIG   0.0000
  30 H            4.9336    -1.7941    -1.9014 H            1    LIG   0.0000
  31 H            3.3689    -2.2611    -1.8885 H            1    LIG   0.0000
  32 H            3.4265    -2.3885     0.4886 H            1    LIG   0.0000
  33 H            4.9912    -1.9216     0.4758 H            1    LIG   0.0000
  34 H            6.4323     1.4873    -0.0302 H            1    LIG   0.0000
  35 H            6.3691     0.0806     0.7968 H            1    LIG   0.0000
  36 H            6.3626     0.0687    -0.8362 H            1    LIG   0.0000
  37 H            5.0990     6.0120     3.0794 H            1    LIG   0.0000
  38 H            7.0202     7.7070     3.6223 H            1    LIG   0.0000
  39 H            9.0887     8.6090     2.3416 H            1    LIG   0.0000
  40 H            9.7204     7.4875     1.3366 H            1    LIG   0.0000
  41 H            8.8163     8.7068     0.7345 H            1    LIG   0.0000
  42 H            1.1947     3.0721    -0.0213 H            1    LIG   0.0000
  43 H           -3.1686     1.7798     0.0558 H            1    LIG   0.0000
  44 H           -2.3562     0.6288    -0.7700 H            1    LIG   0.0000
  45 H           -2.3309     0.6337     0.8628 H            1    LIG   0.0000
  46 H           -0.8679    -0.5115     0.0203 H            1    LIG   0.0000
  47 H            1.2189    -1.6812     0.0277 H            1    LIG   0.0000
@<TRIPOS>BOND
   1        1        2 1
   2        2        3 1
   3        3        4 1
   4        4        5 1
   5        5        6 1
   6        5        7 2
   7        7        8 1
   8        8        9 2
   9        9       10 1
  10       10       11 2
  11       11       12 1
  12       12       13 2
  13       13       14 1
  14       14       15 2
  15       15       16 1
  16       15       17 1
  17       17       12 1
  18       11       18 1
  19       18        8 1
  20        7       19 1
  21       19       20 ar
  22       20       21 ar
  23       21       22 1
  24       22       23 1
  25       21       24 ar
  26       24       25 ar
  27       25       26 ar
  28       26       19 ar
  29       26        4 1
  30        1       27 1
  31        1       28 1
  32        1       29 1
  33        2       30 1
  34        2       31 1
  35        3       32 1
  36        3       33 1
  37        6       34 1
  38        6       35 1
  39        6       36 1
  40       13       37 1
  41       14       38 1
  42       16       39 1
  43       16       40 1
  44       16       41 1
  45       20       42 1
  46       23       43 1
  47       23       44 1
  48       23       45 1
  49       24       46 1
  50       25       47 1

@<TRIPOS>MOLECULE

  47   50
SMALL
USER_CHARGES
@<TRIPOS>ATOM
   1 C1           4.6979    -3.7671     1.4590 C.3          1    LIG   0.0000
   2 C2           4.2632    -2.3107     1.4454 C.3          1    LIG   0.0000
   3 C3           4.1112    -1.8408     0.0078 C.3          1    LIG   0.0000
   4 N4           3.6906    -0.4317    -0.0054 N.pl3        1    LIG   0.0000
   5 C5           4.5359     0.6328    -0.0165 C.2          1    LIG   0.0000
   6 C6           6.0550     0.5612    -0.0220 C.3          1    LIG   0.0000
   7 C7           3.7827     1.7646    -0.0274 C.2          1    LIG   0.0000
   8 C8           4.2924     3.1215    -0.0444 C.2          1    LIG   0.0000
   9 N9           4.0599     4.0084    -0.9808 N.2          1    LIG   0.0000
  10 N10          4.6879     5.1117    -0.6438 N.2          1    LIG   0.0000
  11 C11          5.2979     4.8845     0.4960 C.2          1    LIG   0.0000
  12 C12          6.1065     5.8444     1.2193 C.2          1    LIG   0.0000
  13 C13          6.3484     7.1215     0.8170 C.2          1    LIG   0.0000
  14 C14          7.1703     7.6776     1.8204 C.2          1    LIG   0.0000
  15 C15          7.3565     6.6956     2.7447 C.2          1    LIG   0.0000
  16 C16          8.1783     6.8261     4.0170 C.3          1    LIG   0.0000
  17 O17          6.7125     5.6186     2.3617 O.2          1    LIG   0.0000
  18 O18          5.0603     3.6532     0.8767 O.2          1    LIG   0.0000
  19 C19          2.4180     1.3976    -0.0224 C.ar         1    LIG   0.0000
  20 C20          1.1995     2.0721    -0.0129 C.ar         1    LIG   0.0000
  21 C21         -0.0116     1.3864     0.0079 C.ar         1    LIG   0.0000
  22 O22         -1.1948     2.0371     0.0243 O.3          1    LIG   0.0000
  23 C23         -2.3479     1.2086     0.0447 C.3          1    LIG   0.0000
  24 C24         -0.0064    -0.0037     0.0150 C.ar         1    LIG   0.0000
  25 C25          1.2076    -0.6814     0.0146 C.ar         1    LIG   0.0000
  26 C26          2.4069     0.0239    -0.0040 C.ar         1    LIG   0.0000
  27 H            4.7980    -4.0763     2.4048 H            1    LIG   0.0000
  28 H            4.0085    -4.3251     0.9971 H            1    LIG   0.0000
  29 H            5.5733    -3.8582     0.9842 H            1    LIG   0.0000
  30 H            3.3879    -2.2196     1.9202 H            1    LIG   0.0000
  31 H            4.9526    -1.7527     1.9073 H            1    LIG   0.0000
  32 H            4.9865    -1.9319    -0.4670 H            1    LIG   0.0000
  33 H            3.4218    -2.3988    -0.4541 H            1    LIG   0.0000
  34 H            6.4323     1.4873    -0.0302 H            1    LIG   0.0000
  35 H            6.3691     0.0806     0.7968 H            1    LIG   0.0000
  36 H            6.3626     0.0687    -0.8362 H            1    LIG   0.0000
  37 H            6.0152     7.5701    -0.0122 H            1    LIG   0.0000
  38 H            7.5413     8.6058     1.8471 H            1    LIG   0.0000
  39 H            8.5637     7.7473     4.0719 H            1    LIG   0.0000
  40 H            7.5924     6.6620     4.8106 H            1    LIG   0.0000
  41 H            8.9195     6.1549     4.0054 H            1    LIG   0.0000
  42 H            1.1947     3.0721    -0.0213 H            1    LIG   0.0000
  43 H           -3.1686     1.7798     0.0558 H            1    LIG   0.0000
  44 H           -2.3562     0.6288    -0.7700 H            1    LIG   0.0000
  45 H           -2.3309     0.6337     0.8628 H            1    LIG   0.0000
  46 H           -0.8679    -0.5115     0.0203 H            1    LIG   0.0000
  47 H            1.2189    -1.6812     0.0277 H            1    LIG   0.0000
@<TRIPOS>BOND
   1        1        2 1
   2        2        3 1
   3        3        4 1
   4        4        5 1
   5        5        6 1
   6        5        7 2
   7        7        8 1
   8        8        9 2
   9        9       10 1
  10       10       11 2
  11       11       12 1
  12       12       13 2
  13       13       14 1
  14       14       15 2
  15       15       16 1
  16       15       17 1
  17       17       12 1
  18       11       18 1
  19       18        8 1
  20        7       19 1
  21       19       20 ar
  22       20       21 ar
  23       21       22 1
  24       22       23 1
  25       21       24 ar
  26       24       25 ar
  27       25       26 ar
  28       26       19 ar
  29       26        4 1
  30        1       27 1
  31        1       28 1
  32        1       29 1
  33        2       30 1
  34        2       31 1
  35        3       32 1
  36        3       33 1
  37        6       34 1
  38        6       35 1
  39        6       36 1
  40       13       37 1
  41       14       38 1
  42       16       39 1
  43       16       40 1
  44       16       41 1
  45       20       42 1
  46       23       43 1
  47       23       44 1
  48       23       45 1
  49       24       46 1
  50       25       47 1

@<TRIPOS>MOLECULE

  47   50
SMALL
USER_CHARGES
@<TRIPOS>ATOM
   1 C1           4.6836    -3.7983    -1.4069 C.3          1    LIG   0.0000
   2 C2           4.2489    -2.3419    -1.4206 C.3          1    LIG   0.0000
   3 C3           4.1112    -1.8408     0.0078 C.3          1    LIG   0.0000
   4 N4           3.6906    -0.4317    -0.0054 N.pl3        1    LIG   0.0000
   5 C5           4.5359     0.6328    -0.0165 C.2          1    LIG   0.0000
   6 C6           6.0550     0.5612    -0.0220 C.3          1    LIG   0.0000
   7 C7           3.7827     1.7646    -0.0274 C.2          1    LIG   0.0000
   8 C8           4.2924     3.1215    -0.0444 C.2          1    LIG   0.0000
   9 N9           4.0599     4.0084    -0.9808 N.2          1    LIG   0.0000
  10 N10          4.6879     5.1117    -0.6438 N.2          1    LIG   0.0000
  11 C11          5.2979     4.8845     0.4960 C.2          1    LIG   0.0000
  12 C12          6.1065     5.8444     1.2193 C.2          1    LIG   0.0000
  13 C13          7.2284     6.4424     0.7345 C.2          1    LIG   0.0000
  14 C14          7.6748     7.2901     1.7707 C.2          1    LIG   0.0000
  15 C15          6.7890     7.1372     2.7930 C.2          1    LIG   0.0000
  16 C16          6.8557     7.8532     4.1325 C.3          1    LIG   0.0000
  17 O17          5.8682     6.2732     2.4369 O.2          1    LIG   0.0000
  18 O18          5.0603     3.6532     0.8767 O.2          1    LIG   0.0000
  19 C19          2.4180     1.3976    -0.0224 C.ar         1    LIG   0.0000
  20 C20          1.1995     2.0721    -0.0129 C.ar         1    LIG   0.0000
  21 C21         -0.0116     1.3864     0.0079 C.ar         1    LIG   0.0000
  22 O22         -1.1948     2.0371     0.0243 O.3          1    LIG   0.0000
  23 C23         -1.1131     3.4547     0.0188 C.3          1    LIG   0.0000
  24 C24         -0.0064    -0.0037     0.0150 C.ar         1    LIG   0.0000
  25 C25          1.2076    -0.6814     0.0146 C.ar         1    LIG   0.0000
  26 C26          2.4069     0.0239    -0.0040 C.ar         1    LIG   0.0000
  27 H            4.7742    -4.1280    -2.3466 H            1    LIG   0.0000
  28 H            5.5637    -3.8791    -0.9390 H            1    LIG   0.0000
  29 H            3.9989    -4.3460    -0.9261 H            1    LIG   0.0000
  30 H            4.9336    -1.7941    -1.9014 H            1    LIG   0.0000
  31 H            3.3689    -2.2611    -1.8885 H            1    LIG   0.0000
  32 H            3.4265    -2.3885     0.4886 H            1    LIG   0.0000
  33 H            4.9912    -1.9216     0.4758 H            1    LIG   0.0000
  34 H            6.4323     1.4873    -0.0302 H            1    LIG   0.0000
  35 H            6.3691     0.0806     0.7968 H            1    LIG   0.0000
  36 H            6.3626     0.0687    -0.8362 H            1    LIG   0.0000
  37 H            7.6471     6.3096    -0.1638 H            1    LIG   0.0000
  38 H            8.4795     7.8835     1.7568 H            1    LIG   0.0000
  39 H            7.6533     8.4563     4.1488 H            1    LIG   0.0000
  40 H            6.0254     8.3951     4.2626 H            1    LIG   0.0000
  41 H            6.9324     7.1793     4.8673 H            1    LIG   0.0000
  42 H            1.1947     3.0721    -0.0213 H            1    LIG   0.0000
  43 H           -2.0350     3.8418     0.0319 H            1    LIG   0.0000
  44 H           -0.6106     3.7628     0.8267 H            1    LIG   0.0000
  45 H           -0.6360     3.7579    -0.8061 H            1    LIG   0.0000
  46 H           -0.8679    -0.5115     0.0203 H            1    LIG   0.0000
  47 H            1.2189    -1.6812     0.0277 H            1    LIG   0.0000
@<TRIPOS>BOND
   1        1        2 1
   2        2        3 1
   3        3        4 1
   4        4        5 1
   5        5        6 1
   6        5        7 2
   7        7        8 1
   8        8        9 2
   9        9       10 1
  10       10       11 2
  11       11       12 1
  12       12       13 2
  13       13       14 1
  14       14       15 2
  15       15       16 1
  16       15       17 1
  17       17       12 1
  18       11       18 1
  19       18        8 1
  20        7       19 1
  21       19       20 ar
  22       20       21 ar
  23       21       22 1
  24       22       23 1
  25       21       24 ar
  26       24       25 ar
  27       25       26 ar
  28       26       19 ar
  29       26        4 1
  30        1       27 1
  31        1       28 1
  32        1       29 1
  33        2       30 1
  34        2       31 1
  35        3       32 1
  36        3       33 1
  37        6       34 1
  38        6       35 1
  39        6       36 1
  40       13       37 1
  41       14       38 1
  42       16       39 1
  43       16       40 1
  44       16       41 1
  45       20       42 1
  46       23       43 1
  47       23       44 1
  48       23       45 1
  49       24       46 1
  50       25       47 1

