@<TRIPOS>MOLECULE
*****
 47 50 0 0 0
SMALL
USER_CHARGES

@<TRIPOS>ATOM
      1 C1          4.6836   -3.7983   -1.4069 C.3     1  LIG1        0.0000
      2 C2          4.2489   -2.3419   -1.4206 C.3     1  LIG1        0.0000
      3 C3          4.1112   -1.8408    0.0078 C.3     1  LIG1        0.0000
      4 N4          3.6906   -0.4317   -0.0054 N.pl3   1  LIG1        0.0000
      5 C5          4.5359    0.6328   -0.0165 C.2     1  LIG1        0.0000
      6 C6          6.0550    0.5612   -0.0220 C.3     1  LIG1        0.0000
      7 C7          3.7827    1.7646   -0.0274 C.2     1  LIG1        0.0000
      8 C8          4.2924    3.1215   -0.0444 C.2     1  LIG1        0.0000
      9 N9          4.0599    4.0084   -0.9808 N.2     1  LIG1        0.0000
     10 N10         4.6879    5.1117   -0.6438 N.2     1  LIG1        0.0000
     11 C11         5.2979    4.8845    0.4960 C.2     1  LIG1        0.0000
     12 C12         6.1065    5.8444    1.2193 C.2     1  LIG1        0.0000
     13 C13         5.8558    6.2806    2.4835 C.2     1  LIG1        0.0000
     14 C14         6.8923    7.1932    2.7739 C.2     1  LIG1        0.0000
     15 C15         7.6829    7.2332    1.6665 C.2     1  LIG1        0.0000
     16 C16         8.9341    8.0817    1.5061 C.3     1  LIG1        0.0000
     17 O17         7.1922    6.4217    0.7599 O.2     1  LIG1        0.0000
     18 O18         5.0603    3.6532    0.8767 O.2     1  LIG1        0.0000
     19 C19         2.4180    1.3976   -0.0224 C.ar    1  LIG1        0.0000
     20 C20         1.1995    2.0721   -0.0129 C.ar    1  LIG1        0.0000
     21 C21        -0.0116    1.3864    0.0079 C.ar    1  LIG1        0.0000
     22 O22        -1.1948    2.0371    0.0243 O.3     1  LIG1        0.0000
     23 C23        -2.3479    1.2086    0.0447 C.3     1  LIG1        0.0000
     24 C24        -0.0064   -0.0037    0.0150 C.ar    1  LIG1        0.0000
     25 C25         1.2076   -0.6814    0.0146 C.ar    1  LIG1        0.0000
     26 C26         2.4069    0.0239   -0.0040 C.ar    1  LIG1        0.0000
     27 H           4.7742   -4.1280   -2.3466 H       1  LIG1        0.0000
     28 H           5.5637   -3.8791   -0.9390 H       1  LIG1        0.0000
     29 H           3.9989   -4.3460   -0.9261 H       1  LIG1        0.0000
     30 H           4.9336   -1.7941   -1.9014 H       1  LIG1        0.0000
     31 H           3.3689   -2.2611   -1.8885 H       1  LIG1        0.0000
     32 H           3.4265   -2.3885    0.4886 H       1  LIG1        0.0000
     33 H           4.9912   -1.9216    0.4758 H       1  LIG1        0.0000
     34 H           6.4323    1.4873   -0.0302 H       1  LIG1        0.0000
     35 H           6.3691    0.0806    0.7968 H       1  LIG1        0.0000
     36 H           6.3626    0.0687   -0.8362 H       1  LIG1        0.0000
     37 H           5.0990    6.0120    3.0794 H       1  LIG1        0.0000
     38 H           7.0202    7.7070    3.6223 H       1  LIG1        0.0000
     39 H           9.0887    8.6090    2.3416 H       1  LIG1        0.0000
     40 H           9.7204    7.4875    1.3366 H       1  LIG1        0.0000
     41 H           8.8163    8.7068    0.7345 H       1  LIG1        0.0000
     42 H           1.1947    3.0721   -0.0213 H       1  LIG1        0.0000
     43 H          -3.1686    1.7798    0.0558 H       1  LIG1        0.0000
     44 H          -2.3562    0.6288   -0.7700 H       1  LIG1        0.0000
     45 H          -2.3309    0.6337    0.8628 H       1  LIG1        0.0000
     46 H          -0.8679   -0.5115    0.0203 H       1  LIG1        0.0000
     47 H           1.2189   -1.6812    0.0277 H       1  LIG1        0.0000
@<TRIPOS>BOND
     1     1     2    1
     2     2     3    1
     3     3     4    1
     4     4     5    1
     5     5     6    1
     6     5     7    2
     7     7     8    1
     8     8     9    2
     9     9    10    1
    10    10    11    2
    11    11    12    1
    12    12    13    2
    13    13    14    1
    14    14    15    2
    15    15    16    1
    16    15    17    1
    17    17    12    1
    18    11    18    1
    19    18     8    1
    20     7    19    1
    21    19    20   ar
    22    20    21   ar
    23    21    22    1
    24    22    23    1
    25    21    24   ar
    26    24    25   ar
    27    25    26   ar
    28    26    19   ar
    29    26     4    1
    30     1    27    1
    31     1    28    1
    32     1    29    1
    33     2    30    1
    34     2    31    1
    35     3    32    1
    36     3    33    1
    37     6    34    1
    38     6    35    1
    39     6    36    1
    40    13    37    1
    41    14    38    1
    42    16    39    1
    43    16    40    1
    44    16    41    1
    45    20    42    1
    46    23    43    1
    47    23    44    1
    48    23    45    1
    49    24    46    1
    50    25    47    1
