@<TRIPOS>MOLECULE
*****
 44 47 0 0 0
SMALL
USER_CHARGES

@<TRIPOS>ATOM
      1 C1          5.1679    5.9662    0.9963 C.3     1  LIG1        0.0000
      2 C2          4.4093    4.6498    0.9997 C.ar    1  LIG1        0.0000
      3 C3          3.5402    4.3538   -0.0448 C.ar    1  LIG1        0.0000
      4 C4          2.8423    3.1506   -0.0490 C.ar    1  LIG1        0.0000
      5 C5          3.0249    2.2555    1.0000 C.ar    1  LIG1        0.0000
      6 C6          2.3000    1.0000    1.0000 C.2     1  LIG1        0.0000
      7 O7          2.9550   -0.1345    1.0000 O.3     1  LIG1        0.0000
      8 C8          1.0000    1.0000    1.0000 C.2     1  LIG1        0.0000
      9 C9          0.2751   -0.2555    1.0000 C.ar    1  LIG1        0.0000
     10 C10         0.4577   -1.1506   -0.0490 C.ar    1  LIG1        0.0000
     11 C11        -0.2402   -2.3538   -0.0448 C.ar    1  LIG1        0.0000
     12 C12        -1.1093   -2.6498    0.9997 C.ar    1  LIG1        0.0000
     13 C13        -1.8679   -3.9662    0.9963 C.3     1  LIG1        0.0000
     14 C14        -1.2852   -1.7491    2.0458 C.ar    1  LIG1        0.0000
     15 C15        -0.5915   -0.5439    2.0496 C.ar    1  LIG1        0.0000
     16 N16         0.2999    2.2125    1.0000 N.pl3   1  LIG1        0.0000
     17 N17         0.8417    3.4086    1.0000 N.2     1  LIG1        0.0000
     18 N18        -0.0599    4.2927    0.9986 N.2     1  LIG1        0.0000
     19 C19        -1.2524    3.6345    0.9981 C.2     1  LIG1        0.0000
     20 C20        -2.5701    4.2526    0.9989 C.2     1  LIG1        0.0000
     21 C21        -2.6998    5.6096    1.0054 C.2     1  LIG1        0.0000
     22 S22        -4.3896    5.8455    1.0157 S.3     1  LIG1        0.0000
     23 C23        -4.8571    4.2040    1.0085 C.2     1  LIG1        0.0000
     24 N24        -3.7360    3.5221    0.9984 N.2     1  LIG1        0.0000
     25 N25        -1.0062    2.3452    0.9978 N.2     1  LIG1        0.0000
     26 C26         3.8915    2.5439    2.0496 C.ar    1  LIG1        0.0000
     27 C27         4.5852    3.7491    2.0458 C.ar    1  LIG1        0.0000
     28 H           5.7443    6.0209    1.8116 H       1  LIG1        0.0000
     29 H           5.7412    6.0183    0.1786 H       1  LIG1        0.0000
     30 H           4.5174    6.7257    0.9963 H       1  LIG1        0.0000
     31 H           3.4170    5.0060   -0.7929 H       1  LIG1        0.0000
     32 H           2.2165    2.9315   -0.7976 H       1  LIG1        0.0000
     33 H           2.4550   -1.0005    1.0000 H       1  LIG1        0.0000
     34 H           1.0835   -0.9315   -0.7976 H       1  LIG1        0.0000
     35 H          -0.1170   -3.0060   -0.7929 H       1  LIG1        0.0000
     36 H          -2.4443   -4.0209    1.8116 H       1  LIG1        0.0000
     37 H          -2.4412   -4.0183    0.1786 H       1  LIG1        0.0000
     38 H          -1.2174   -4.7257    0.9963 H       1  LIG1        0.0000
     39 H          -1.9104   -1.9686    2.7947 H       1  LIG1        0.0000
     40 H          -0.7141    0.1079    2.7980 H       1  LIG1        0.0000
     41 H          -1.9775    6.3012    1.0043 H       1  LIG1        0.0000
     42 H          -5.7881    3.8391    1.0114 H       1  LIG1        0.0000
     43 H           4.0141    1.8921    2.7980 H       1  LIG1        0.0000
     44 H           5.2104    3.9686    2.7947 H       1  LIG1        0.0000
@<TRIPOS>BOND
     1     1     2    1
     2     2     3   ar
     3     3     4   ar
     4     4     5   ar
     5     5     6    1
     6     6     7    1
     7     6     8    2
     8     8     9    1
     9     9    10   ar
    10    10    11   ar
    11    11    12   ar
    12    12    13    1
    13    12    14   ar
    14    14    15   ar
    15    15     9   ar
    16     8    16    1
    17    16    17    1
    18    17    18    2
    19    18    19    1
    20    19    20    1
    21    20    21    2
    22    21    22    1
    23    22    23    1
    24    23    24    2
    25    24    20    1
    26    19    25    2
    27    25    16    1
    28     5    26   ar
    29    26    27   ar
    30    27     2   ar
    31     1    28    1
    32     1    29    1
    33     1    30    1
    34     3    31    1
    35     4    32    1
    36     7    33    1
    37    10    34    1
    38    11    35    1
    39    13    36    1
    40    13    37    1
    41    13    38    1
    42    14    39    1
    43    15    40    1
    44    21    41    1
    45    23    42    1
    46    26    43    1
    47    27    44    1
