@<TRIPOS>MOLECULE
*****
 37 37 0 0 0
SMALL
USER_CHARGES

@<TRIPOS>ATOM
      1 C1          5.4826   -1.6868   -1.4918 C.3     1  LIG1        0.0000
      2 C2          4.1542   -0.9482   -1.4755 C.3     1  LIG1        0.0000
      3 C3          3.1027   -1.7810   -2.1906 C.3     1  LIG1        0.0000
      4 C4          3.7226   -0.7135   -0.0371 C.3     1  LIG1        0.0000
      5 C5          2.3937    0.0254   -0.0209 C.ar    1  LIG1        0.0000
      6 C6          2.3815    1.4156   -0.0097 C.ar    1  LIG1        0.0000
      7 C7          1.1709    2.1006    0.0064 C.ar    1  LIG1        0.0000
      8 C8         -0.0173    1.3775    0.0102 C.ar    1  LIG1        0.0000
      9 C9         -1.3432    2.1201    0.0262 C.3     1  LIG1        0.0000
     10 C10        -1.7740    2.3568    1.4645 C.3     1  LIG1        0.0000
     11 C11        -3.1001    3.0994    1.4805 C.3     1  LIG1        0.0000
     12 C12        -1.9328    1.0210    2.1722 C.3     1  LIG1        0.0000
     13 O13        -0.7893    3.1320    2.1321 O.3     1  LIG1        0.0000
     14 C14        -0.0155   -0.0135   -0.0013 C.ar    1  LIG1        0.0000
     15 C15         1.1999   -0.6895   -0.0180 C.ar    1  LIG1        0.0000
     16 H           5.7666   -1.8413   -2.4381 H       1  LIG1        0.0000
     17 H           6.1744   -1.1390   -1.0214 H       1  LIG1        0.0000
     18 H           5.3808   -2.5662   -1.0266 H       1  LIG1        0.0000
     19 H           4.2560   -0.0689   -1.9407 H       1  LIG1        0.0000
     20 H           3.3867   -1.9354   -3.1369 H       1  LIG1        0.0000
     21 H           3.0009   -2.6603   -1.7254 H       1  LIG1        0.0000
     22 H           2.2288   -1.2950   -2.1799 H       1  LIG1        0.0000
     23 H           3.6208   -1.5928    0.4280 H       1  LIG1        0.0000
     24 H           4.4144   -0.1657    0.4333 H       1  LIG1        0.0000
     25 H           3.2432    1.9231   -0.0131 H       1  LIG1        0.0000
     26 H           1.1550    3.1005    0.0150 H       1  LIG1        0.0000
     27 H          -2.0367    1.5741   -0.4439 H       1  LIG1        0.0000
     28 H          -1.2387    2.9989   -0.4394 H       1  LIG1        0.0000
     29 H          -3.7936    2.5535    1.0104 H       1  LIG1        0.0000
     30 H          -3.3836    3.2551    2.4268 H       1  LIG1        0.0000
     31 H          -2.9957    3.9782    1.0149 H       1  LIG1        0.0000
     32 H          -2.6263    0.4750    1.7021 H       1  LIG1        0.0000
     33 H          -1.0603    0.5324    2.1617 H       1  LIG1        0.0000
     34 H          -2.2162    1.1767    3.1185 H       1  LIG1        0.0000
     35 H          -1.0727    3.2878    3.0784 H       1  LIG1        0.0000
     36 H          -0.8772   -0.5210    0.0023 H       1  LIG1        0.0000
     37 H           1.2159   -1.6893   -0.0278 H       1  LIG1        0.0000
@<TRIPOS>BOND
     1     1     2    1
     2     2     3    1
     3     2     4    1
     4     4     5    1
     5     5     6   ar
     6     6     7   ar
     7     7     8   ar
     8     8     9    1
     9     9    10    1
    10    10    11    1
    11    10    12    1
    12    10    13    1
    13     8    14   ar
    14    14    15   ar
    15    15     5   ar
    16     1    16    1
    17     1    17    1
    18     1    18    1
    19     2    19    1
    20     3    20    1
    21     3    21    1
    22     3    22    1
    23     4    23    1
    24     4    24    1
    25     6    25    1
    26     7    26    1
    27     9    27    1
    28     9    28    1
    29    11    29    1
    30    11    30    1
    31    11    31    1
    32    12    32    1
    33    12    33    1
    34    12    34    1
    35    13    35    1
    36    14    36    1
    37    15    37    1
