@<TRIPOS>MOLECULE

  27   29
SMALL
USER_CHARGES
@<TRIPOS>ATOM
   1 Br1         -0.9289     4.0281    -3.0020 Br           1    LIG   0.0000
   2 C2           0.1468     2.7863    -1.9316 C.2          1    LIG   0.0000
   3 N3          -0.0574     2.4599    -0.6803 N.2          1    LIG   0.0000
   4 N4           0.8794     1.6058    -0.3338 N.pl3        1    LIG   0.0000
   5 C5           1.0000     1.0000     1.0000 C.3          1    LIG   0.0000
   6 C6           1.8780     1.8780     1.8780 C.ar         1    LIG   0.0000
   7 C7           1.2414     2.7258     2.7791 C.ar         1    LIG   0.0000
   8 C8           1.9936     3.5516     3.6086 C.ar         1    LIG   0.0000
   9 C9           3.3819     3.5210     3.5267 C.ar         1    LIG   0.0000
  10 C10          4.0372     2.6799     2.6321 C.ar         1    LIG   0.0000
  11 C11          5.4282     2.6626     2.5641 C.ar         1    LIG   0.0000
  12 Br12         6.5414     3.8026     3.7064 Br           1    LIG   0.0000
  13 C13          6.0719     1.8186     1.6647 C.ar         1    LIG   0.0000
  14 C14          5.3265     0.9905     0.8318 C.ar         1    LIG   0.0000
  15 C15          3.9382     1.0224     0.9153 C.ar         1    LIG   0.0000
  16 C16          3.2711     1.8588     1.8080 C.ar         1    LIG   0.0000
  17 N17          1.6959     1.3652    -1.3356 N.2          1    LIG   0.0000
  18 C18          1.2855     2.0749    -2.3594 C.2          1    LIG   0.0000
  19 Br19         2.1018     2.1337    -4.1408 Br           1    LIG   0.0000
  20 H            1.4121     0.0926     0.9180 H            1    LIG   0.0000
  21 H            0.0926     0.9180     1.4121 H            1    LIG   0.0000
  22 H            0.2428     2.7416     2.8305 H            1    LIG   0.0000
  23 H            1.5401     4.1618     4.2582 H            1    LIG   0.0000
  24 H            3.9205     4.1160     4.1232 H            1    LIG   0.0000
  25 H            7.0707     1.8073     1.6169 H            1    LIG   0.0000
  26 H            5.7819     0.3813     0.1825 H            1    LIG   0.0000
  27 H            3.4028     0.4268     0.3165 H            1    LIG   0.0000
@<TRIPOS>BOND
   1        1        2 1
   2        2        3 2
   3        3        4 1
   4        4        5 1
   5        5        6 1
   6        6        7 ar
   7        7        8 ar
   8        8        9 ar
   9        9       10 ar
  10       10       11 ar
  11       11       12 1
  12       11       13 ar
  13       13       14 ar
  14       14       15 ar
  15       15       16 ar
  16       16        6 ar
  17       16       10 ar
  18        4       17 1
  19       17       18 2
  20       18        2 1
  21       18       19 1
  22        5       20 1
  23        5       21 1
  24        7       22 1
  25        8       23 1
  26        9       24 1
  27       13       25 1
  28       14       26 1
  29       15       27 1

@<TRIPOS>MOLECULE

  27   29
SMALL
USER_CHARGES
@<TRIPOS>ATOM
   1 Br1         -1.2290     2.5987    -3.6240 Br           1    LIG   0.0000
   2 C2           0.0338     2.2496    -2.1651 C.2          1    LIG   0.0000
   3 N3          -0.2289     1.6348    -1.0395 N.2          1    LIG   0.0000
   4 N4           0.8794     1.6058    -0.3338 N.pl3        1    LIG   0.0000
   5 C5           1.0000     1.0000     1.0000 C.3          1    LIG   0.0000
   6 C6           1.8780     1.8780     1.8780 C.ar         1    LIG   0.0000
   7 C7           1.3127     2.3934     3.0402 C.ar         1    LIG   0.0000
   8 C8           2.0687     3.2025     3.8827 C.ar         1    LIG   0.0000
   9 C9           3.3887     3.4898     3.5512 C.ar         1    LIG   0.0000
  10 C10          3.9722     2.9837     2.3933 C.ar         1    LIG   0.0000
  11 C11          5.2956     3.2817     2.0775 C.ar         1    LIG   0.0000
  12 Br12         6.4104     4.4155     3.2245 Br           1    LIG   0.0000
  13 C13          5.8674     2.7713     0.9165 C.ar         1    LIG   0.0000
  14 C14          5.1176     1.9621     0.0691 C.ar         1    LIG   0.0000
  15 C15          3.7977     1.6758     0.4025 C.ar         1    LIG   0.0000
  16 C16          3.2033     2.1751     1.5596 C.ar         1    LIG   0.0000
  17 N17          1.8659     2.1910    -0.9760 N.2          1    LIG   0.0000
  18 C18          1.3953     2.6110    -2.1258 C.2          1    LIG   0.0000
  19 Br19         2.3954     3.5598    -3.5197 Br           1    LIG   0.0000
  20 H            1.4121     0.0926     0.9180 H            1    LIG   0.0000
  21 H            0.0926     0.9180     1.4121 H            1    LIG   0.0000
  22 H            0.3626     2.1822     3.2701 H            1    LIG   0.0000
  23 H            1.6665     3.5743     4.7193 H            1    LIG   0.0000
  24 H            3.9300     4.0722     4.1576 H            1    LIG   0.0000
  25 H            6.8177     2.9863     0.6910 H            1    LIG   0.0000
  26 H            5.5215     1.5916    -0.7673 H            1    LIG   0.0000
  27 H            3.2591     1.0939    -0.2069 H            1    LIG   0.0000
@<TRIPOS>BOND
   1        1        2 1
   2        2        3 2
   3        3        4 1
   4        4        5 1
   5        5        6 1
   6        6        7 ar
   7        7        8 ar
   8        8        9 ar
   9        9       10 ar
  10       10       11 ar
  11       11       12 1
  12       11       13 ar
  13       13       14 ar
  14       14       15 ar
  15       15       16 ar
  16       16        6 ar
  17       16       10 ar
  18        4       17 1
  19       17       18 2
  20       18        2 1
  21       18       19 1
  22        5       20 1
  23        5       21 1
  24        7       22 1
  25        8       23 1
  26        9       24 1
  27       13       25 1
  28       14       26 1
  29       15       27 1

@<TRIPOS>MOLECULE

  27   29
SMALL
USER_CHARGES
@<TRIPOS>ATOM
   1 Br1         -0.9289     4.0281    -3.0020 Br           1    LIG   0.0000
   2 C2           0.1468     2.7863    -1.9316 C.2          1    LIG   0.0000
   3 N3          -0.0574     2.4599    -0.6803 N.2          1    LIG   0.0000
   4 N4           0.8794     1.6058    -0.3338 N.pl3        1    LIG   0.0000
   5 C5           1.0000     1.0000     1.0000 C.3          1    LIG   0.0000
   6 C6           1.8780     1.8780     1.8780 C.ar         1    LIG   0.0000
   7 C7           3.2059     1.4968     2.0435 C.ar         1    LIG   0.0000
   8 C8           4.0564     2.2622     2.8352 C.ar         1    LIG   0.0000
   9 C9           3.5666     3.4061     3.4569 C.ar         1    LIG   0.0000
  10 C10          2.2417     3.8040     3.3035 C.ar         1    LIG   0.0000
  11 C11          1.7688     4.9527     3.9335 C.ar         1    LIG   0.0000
  12 Br12         2.9186     6.0710     5.0608 Br           1    LIG   0.0000
  13 C13          0.4419     5.3394     3.7739 C.ar         1    LIG   0.0000
  14 C14         -0.4145     4.5789     2.9844 C.ar         1    LIG   0.0000
  15 C15          0.0773     3.4354     2.3633 C.ar         1    LIG   0.0000
  16 C16          1.4020     3.0280     2.5080 C.ar         1    LIG   0.0000
  17 N17          1.6959     1.3652    -1.3356 N.2          1    LIG   0.0000
  18 C18          1.2855     2.0749    -2.3594 C.2          1    LIG   0.0000
  19 Br19         2.1018     2.1337    -4.1408 Br           1    LIG   0.0000
  20 H            1.4121     0.0926     0.9180 H            1    LIG   0.0000
  21 H            0.0926     0.9180     1.4121 H            1    LIG   0.0000
  22 H            3.5491     0.6725     1.5934 H            1    LIG   0.0000
  23 H            5.0117     1.9923     2.9562 H            1    LIG   0.0000
  24 H            4.1794     3.9543     4.0261 H            1    LIG   0.0000
  25 H            0.1037     6.1643     4.2270 H            1    LIG   0.0000
  26 H           -1.3695     4.8503     2.8650 H            1    LIG   0.0000
  27 H           -0.5386     2.8891     1.7956 H            1    LIG   0.0000
@<TRIPOS>BOND
   1        1        2 1
   2        2        3 2
   3        3        4 1
   4        4        5 1
   5        5        6 1
   6        6        7 ar
   7        7        8 ar
   8        8        9 ar
   9        9       10 ar
  10       10       11 ar
  11       11       12 1
  12       11       13 ar
  13       13       14 ar
  14       14       15 ar
  15       15       16 ar
  16       16        6 ar
  17       16       10 ar
  18        4       17 1
  19       17       18 2
  20       18        2 1
  21       18       19 1
  22        5       20 1
  23        5       21 1
  24        7       22 1
  25        8       23 1
  26        9       24 1
  27       13       25 1
  28       14       26 1
  29       15       27 1

@<TRIPOS>MOLECULE

  27   29
SMALL
USER_CHARGES
@<TRIPOS>ATOM
   1 Br1          0.4540     4.7774    -2.7867 Br           1    LIG   0.0000
   2 C2           0.6662     3.0674    -1.8509 C.2          1    LIG   0.0000
   3 N3           0.7399     2.8936    -0.5554 N.2          1    LIG   0.0000
   4 N4           0.8794     1.6058    -0.3338 N.pl3        1    LIG   0.0000
   5 C5           1.0000     1.0000     1.0000 C.3          1    LIG   0.0000
   6 C6           1.8780     1.8780     1.8780 C.ar         1    LIG   0.0000
   7 C7           3.0402     1.3127     2.3934 C.ar         1    LIG   0.0000
   8 C8           3.8827     2.0687     3.2025 C.ar         1    LIG   0.0000
   9 C9           3.5512     3.3887     3.4898 C.ar         1    LIG   0.0000
  10 C10          2.3933     3.9722     2.9837 C.ar         1    LIG   0.0000
  11 C11          2.0775     5.2956     3.2817 C.ar         1    LIG   0.0000
  12 Br12         3.2245     6.4104     4.4155 Br           1    LIG   0.0000
  13 C13          0.9165     5.8674     2.7713 C.ar         1    LIG   0.0000
  14 C14          0.0691     5.1176     1.9621 C.ar         1    LIG   0.0000
  15 C15          0.4025     3.7977     1.6758 C.ar         1    LIG   0.0000
  16 C16          1.5596     3.2033     2.1751 C.ar         1    LIG   0.0000
  17 N17          0.8989     0.9300    -1.4612 N.2          1    LIG   0.0000
  18 C18          0.7685     1.7919    -2.4412 C.2          1    LIG   0.0000
  19 Br19         0.7255     1.3820    -4.3578 Br           1    LIG   0.0000
  20 H            1.4121     0.0926     0.9180 H            1    LIG   0.0000
  21 H            0.0926     0.9180     1.4121 H            1    LIG   0.0000
  22 H            3.2701     0.3626     2.1822 H            1    LIG   0.0000
  23 H            4.7193     1.6665     3.5743 H            1    LIG   0.0000
  24 H            4.1576     3.9300     4.0722 H            1    LIG   0.0000
  25 H            0.6910     6.8177     2.9863 H            1    LIG   0.0000
  26 H           -0.7673     5.5215     1.5916 H            1    LIG   0.0000
  27 H           -0.2069     3.2591     1.0939 H            1    LIG   0.0000
@<TRIPOS>BOND
   1        1        2 1
   2        2        3 2
   3        3        4 1
   4        4        5 1
   5        5        6 1
   6        6        7 ar
   7        7        8 ar
   8        8        9 ar
   9        9       10 ar
  10       10       11 ar
  11       11       12 1
  12       11       13 ar
  13       13       14 ar
  14       14       15 ar
  15       15       16 ar
  16       16        6 ar
  17       16       10 ar
  18        4       17 1
  19       17       18 2
  20       18        2 1
  21       18       19 1
  22        5       20 1
  23        5       21 1
  24        7       22 1
  25        8       23 1
  26        9       24 1
  27       13       25 1
  28       14       26 1
  29       15       27 1

@<TRIPOS>MOLECULE

  27   29
SMALL
USER_CHARGES
@<TRIPOS>ATOM
   1 Br1         -1.2290     2.5987    -3.6240 Br           1    LIG   0.0000
   2 C2           0.0338     2.2496    -2.1651 C.2          1    LIG   0.0000
   3 N3          -0.2289     1.6348    -1.0395 N.2          1    LIG   0.0000
   4 N4           0.8794     1.6058    -0.3338 N.pl3        1    LIG   0.0000
   5 C5           1.0000     1.0000     1.0000 C.3          1    LIG   0.0000
   6 C6           1.8780     1.8780     1.8780 C.ar         1    LIG   0.0000
   7 C7           3.0402     1.3127     2.3934 C.ar         1    LIG   0.0000
   8 C8           3.8827     2.0687     3.2025 C.ar         1    LIG   0.0000
   9 C9           3.5512     3.3887     3.4898 C.ar         1    LIG   0.0000
  10 C10          2.3933     3.9722     2.9837 C.ar         1    LIG   0.0000
  11 C11          2.0775     5.2956     3.2817 C.ar         1    LIG   0.0000
  12 Br12         3.2245     6.4104     4.4155 Br           1    LIG   0.0000
  13 C13          0.9165     5.8674     2.7713 C.ar         1    LIG   0.0000
  14 C14          0.0691     5.1176     1.9621 C.ar         1    LIG   0.0000
  15 C15          0.4025     3.7977     1.6758 C.ar         1    LIG   0.0000
  16 C16          1.5596     3.2033     2.1751 C.ar         1    LIG   0.0000
  17 N17          1.8659     2.1910    -0.9760 N.2          1    LIG   0.0000
  18 C18          1.3953     2.6110    -2.1258 C.2          1    LIG   0.0000
  19 Br19         2.3954     3.5598    -3.5197 Br           1    LIG   0.0000
  20 H            1.4121     0.0926     0.9180 H            1    LIG   0.0000
  21 H            0.0926     0.9180     1.4121 H            1    LIG   0.0000
  22 H            3.2701     0.3626     2.1822 H            1    LIG   0.0000
  23 H            4.7193     1.6665     3.5743 H            1    LIG   0.0000
  24 H            4.1576     3.9300     4.0722 H            1    LIG   0.0000
  25 H            0.6910     6.8177     2.9863 H            1    LIG   0.0000
  26 H           -0.7673     5.5215     1.5916 H            1    LIG   0.0000
  27 H           -0.2069     3.2591     1.0939 H            1    LIG   0.0000
@<TRIPOS>BOND
   1        1        2 1
   2        2        3 2
   3        3        4 1
   4        4        5 1
   5        5        6 1
   6        6        7 ar
   7        7        8 ar
   8        8        9 ar
   9        9       10 ar
  10       10       11 ar
  11       11       12 1
  12       11       13 ar
  13       13       14 ar
  14       14       15 ar
  15       15       16 ar
  16       16        6 ar
  17       16       10 ar
  18        4       17 1
  19       17       18 2
  20       18        2 1
  21       18       19 1
  22        5       20 1
  23        5       21 1
  24        7       22 1
  25        8       23 1
  26        9       24 1
  27       13       25 1
  28       14       26 1
  29       15       27 1

@<TRIPOS>MOLECULE

  27   29
SMALL
USER_CHARGES
@<TRIPOS>ATOM
   1 Br1         -0.9289     4.0281    -3.0020 Br           1    LIG   0.0000
   2 C2           0.1468     2.7863    -1.9316 C.2          1    LIG   0.0000
   3 N3          -0.0574     2.4599    -0.6803 N.2          1    LIG   0.0000
   4 N4           0.8794     1.6058    -0.3338 N.pl3        1    LIG   0.0000
   5 C5           1.0000     1.0000     1.0000 C.3          1    LIG   0.0000
   6 C6           1.8780     1.8780     1.8780 C.ar         1    LIG   0.0000
   7 C7           2.3934     3.0402     1.3127 C.ar         1    LIG   0.0000
   8 C8           3.2025     3.8827     2.0687 C.ar         1    LIG   0.0000
   9 C9           3.4898     3.5512     3.3887 C.ar         1    LIG   0.0000
  10 C10          2.9837     2.3933     3.9722 C.ar         1    LIG   0.0000
  11 C11          3.2817     2.0775     5.2956 C.ar         1    LIG   0.0000
  12 Br12         4.4155     3.2245     6.4104 Br           1    LIG   0.0000
  13 C13          2.7713     0.9165     5.8674 C.ar         1    LIG   0.0000
  14 C14          1.9621     0.0691     5.1176 C.ar         1    LIG   0.0000
  15 C15          1.6758     0.4025     3.7977 C.ar         1    LIG   0.0000
  16 C16          2.1751     1.5596     3.2033 C.ar         1    LIG   0.0000
  17 N17          1.6959     1.3652    -1.3356 N.2          1    LIG   0.0000
  18 C18          1.2855     2.0749    -2.3594 C.2          1    LIG   0.0000
  19 Br19         2.1018     2.1337    -4.1408 Br           1    LIG   0.0000
  20 H            1.4121     0.0926     0.9180 H            1    LIG   0.0000
  21 H            0.0926     0.9180     1.4121 H            1    LIG   0.0000
  22 H            2.1822     3.2701     0.3626 H            1    LIG   0.0000
  23 H            3.5743     4.7193     1.6665 H            1    LIG   0.0000
  24 H            4.0722     4.1576     3.9300 H            1    LIG   0.0000
  25 H            2.9863     0.6910     6.8177 H            1    LIG   0.0000
  26 H            1.5916    -0.7673     5.5215 H            1    LIG   0.0000
  27 H            1.0939    -0.2069     3.2591 H            1    LIG   0.0000
@<TRIPOS>BOND
   1        1        2 1
   2        2        3 2
   3        3        4 1
   4        4        5 1
   5        5        6 1
   6        6        7 ar
   7        7        8 ar
   8        8        9 ar
   9        9       10 ar
  10       10       11 ar
  11       11       12 1
  12       11       13 ar
  13       13       14 ar
  14       14       15 ar
  15       15       16 ar
  16       16        6 ar
  17       16       10 ar
  18        4       17 1
  19       17       18 2
  20       18        2 1
  21       18       19 1
  22        5       20 1
  23        5       21 1
  24        7       22 1
  25        8       23 1
  26        9       24 1
  27       13       25 1
  28       14       26 1
  29       15       27 1

@<TRIPOS>MOLECULE

  27   29
SMALL
USER_CHARGES
@<TRIPOS>ATOM
   1 Br1         -1.2290     2.5987    -3.6240 Br           1    LIG   0.0000
   2 C2           0.0338     2.2496    -2.1651 C.2          1    LIG   0.0000
   3 N3          -0.2289     1.6348    -1.0395 N.2          1    LIG   0.0000
   4 N4           0.8794     1.6058    -0.3338 N.pl3        1    LIG   0.0000
   5 C5           1.0000     1.0000     1.0000 C.3          1    LIG   0.0000
   6 C6           1.8780     1.8780     1.8780 C.ar         1    LIG   0.0000
   7 C7           2.2180     3.1366     1.3917 C.ar         1    LIG   0.0000
   8 C8           3.0183     3.9837     2.1518 C.ar         1    LIG   0.0000
   9 C9           3.4733     3.5602     3.3962 C.ar         1    LIG   0.0000
  10 C10          3.1440     2.3051     3.9000 C.ar         1    LIG   0.0000
  11 C11          3.6085     1.8980     5.1484 C.ar         1    LIG   0.0000
  12 Br12         4.7390     3.0467     6.2647 Br           1    LIG   0.0000
  13 C13          3.2740     0.6405     5.6407 C.ar         1    LIG   0.0000
  14 C14          2.4746    -0.2121     4.8863 C.ar         1    LIG   0.0000
  15 C15          2.0205     0.2134     3.6421 C.ar         1    LIG   0.0000
  16 C16          2.3420     1.4679     3.1280 C.ar         1    LIG   0.0000
  17 N17          1.8659     2.1910    -0.9760 N.2          1    LIG   0.0000
  18 C18          1.3953     2.6110    -2.1258 C.2          1    LIG   0.0000
  19 Br19         2.3954     3.5598    -3.5197 Br           1    LIG   0.0000
  20 H            1.4121     0.0926     0.9180 H            1    LIG   0.0000
  21 H            0.0926     0.9180     1.4121 H            1    LIG   0.0000
  22 H            1.8870     3.4323     0.4956 H            1    LIG   0.0000
  23 H            3.2644     4.8893     1.8064 H            1    LIG   0.0000
  24 H            4.0491     4.1703     3.9404 H            1    LIG   0.0000
  25 H            3.6083     0.3495     6.5371 H            1    LIG   0.0000
  26 H            2.2300    -1.1175     5.2332 H            1    LIG   0.0000
  27 H            1.4457    -0.3998     3.1002 H            1    LIG   0.0000
@<TRIPOS>BOND
   1        1        2 1
   2        2        3 2
   3        3        4 1
   4        4        5 1
   5        5        6 1
   6        6        7 ar
   7        7        8 ar
   8        8        9 ar
   9        9       10 ar
  10       10       11 ar
  11       11       12 1
  12       11       13 ar
  13       13       14 ar
  14       14       15 ar
  15       15       16 ar
  16       16        6 ar
  17       16       10 ar
  18        4       17 1
  19       17       18 2
  20       18        2 1
  21       18       19 1
  22        5       20 1
  23        5       21 1
  24        7       22 1
  25        8       23 1
  26        9       24 1
  27       13       25 1
  28       14       26 1
  29       15       27 1

@<TRIPOS>MOLECULE

  27   29
SMALL
USER_CHARGES
@<TRIPOS>ATOM
   1 Br1         -0.9289     4.0281    -3.0020 Br           1    LIG   0.0000
   2 C2           0.1468     2.7863    -1.9316 C.2          1    LIG   0.0000
   3 N3          -0.0574     2.4599    -0.6803 N.2          1    LIG   0.0000
   4 N4           0.8794     1.6058    -0.3338 N.pl3        1    LIG   0.0000
   5 C5           1.0000     1.0000     1.0000 C.3          1    LIG   0.0000
   6 C6           1.8780     1.8780     1.8780 C.ar         1    LIG   0.0000
   7 C7           1.7184     3.2561     1.7717 C.ar         1    LIG   0.0000
   8 C8           2.4939     4.1089     2.5510 C.ar         1    LIG   0.0000
   9 C9           3.4264     3.5712     3.4321 C.ar         1    LIG   0.0000
  10 C10          3.6007     2.1956     3.5529 C.ar         1    LIG   0.0000
  11 C11          4.5392     1.6750     4.4407 C.ar         1    LIG   0.0000
  12 Br12         5.6605     2.8255     5.5643 Br           1    LIG   0.0000
  13 C13          4.7055     0.2982     4.5515 C.ar         1    LIG   0.0000
  14 C14          3.9341    -0.5606     3.7753 C.ar         1    LIG   0.0000
  15 C15          3.0020    -0.0209     2.8949 C.ar         1    LIG   0.0000
  16 C16          2.8173     1.3542     2.7665 C.ar         1    LIG   0.0000
  17 N17          1.6959     1.3652    -1.3356 N.2          1    LIG   0.0000
  18 C18          1.2855     2.0749    -2.3594 C.2          1    LIG   0.0000
  19 Br19         2.1018     2.1337    -4.1408 Br           1    LIG   0.0000
  20 H            1.4121     0.0926     0.9180 H            1    LIG   0.0000
  21 H            0.0926     0.9180     1.4121 H            1    LIG   0.0000
  22 H            1.0461     3.6338     1.1350 H            1    LIG   0.0000
  23 H            2.3819     5.1000     2.4783 H            1    LIG   0.0000
  24 H            3.9833     4.1860     3.9905 H            1    LIG   0.0000
  25 H            5.3798    -0.0741     5.1893 H            1    LIG   0.0000
  26 H            4.0480    -1.5514     3.8491 H            1    LIG   0.0000
  27 H            2.4476    -0.6387     2.3373 H            1    LIG   0.0000
@<TRIPOS>BOND
   1        1        2 1
   2        2        3 2
   3        3        4 1
   4        4        5 1
   5        5        6 1
   6        6        7 ar
   7        7        8 ar
   8        8        9 ar
   9        9       10 ar
  10       10       11 ar
  11       11       12 1
  12       11       13 ar
  13       13       14 ar
  14       14       15 ar
  15       15       16 ar
  16       16        6 ar
  17       16       10 ar
  18        4       17 1
  19       17       18 2
  20       18        2 1
  21       18       19 1
  22        5       20 1
  23        5       21 1
  24        7       22 1
  25        8       23 1
  26        9       24 1
  27       13       25 1
  28       14       26 1
  29       15       27 1

@<TRIPOS>MOLECULE

  27   29
SMALL
USER_CHARGES
@<TRIPOS>ATOM
   1 Br1         -1.2290     2.5987    -3.6240 Br           1    LIG   0.0000
   2 C2           0.0338     2.2496    -2.1651 C.2          1    LIG   0.0000
   3 N3          -0.2289     1.6348    -1.0395 N.2          1    LIG   0.0000
   4 N4           0.8794     1.6058    -0.3338 N.pl3        1    LIG   0.0000
   5 C5           1.0000     1.0000     1.0000 C.3          1    LIG   0.0000
   6 C6           1.8780     1.8780     1.8780 C.ar         1    LIG   0.0000
   7 C7           1.7184     3.2561     1.7717 C.ar         1    LIG   0.0000
   8 C8           2.4939     4.1089     2.5510 C.ar         1    LIG   0.0000
   9 C9           3.4264     3.5712     3.4321 C.ar         1    LIG   0.0000
  10 C10          3.6007     2.1956     3.5529 C.ar         1    LIG   0.0000
  11 C11          4.5392     1.6750     4.4407 C.ar         1    LIG   0.0000
  12 Br12         5.6605     2.8255     5.5643 Br           1    LIG   0.0000
  13 C13          4.7055     0.2982     4.5515 C.ar         1    LIG   0.0000
  14 C14          3.9341    -0.5606     3.7753 C.ar         1    LIG   0.0000
  15 C15          3.0020    -0.0209     2.8949 C.ar         1    LIG   0.0000
  16 C16          2.8173     1.3542     2.7665 C.ar         1    LIG   0.0000
  17 N17          1.8659     2.1910    -0.9760 N.2          1    LIG   0.0000
  18 C18          1.3953     2.6110    -2.1258 C.2          1    LIG   0.0000
  19 Br19         2.3954     3.5598    -3.5197 Br           1    LIG   0.0000
  20 H            1.4121     0.0926     0.9180 H            1    LIG   0.0000
  21 H            0.0926     0.9180     1.4121 H            1    LIG   0.0000
  22 H            1.0461     3.6338     1.1350 H            1    LIG   0.0000
  23 H            2.3819     5.1000     2.4783 H            1    LIG   0.0000
  24 H            3.9833     4.1860     3.9905 H            1    LIG   0.0000
  25 H            5.3798    -0.0741     5.1893 H            1    LIG   0.0000
  26 H            4.0480    -1.5514     3.8491 H            1    LIG   0.0000
  27 H            2.4476    -0.6387     2.3373 H            1    LIG   0.0000
@<TRIPOS>BOND
   1        1        2 1
   2        2        3 2
   3        3        4 1
   4        4        5 1
   5        5        6 1
   6        6        7 ar
   7        7        8 ar
   8        8        9 ar
   9        9       10 ar
  10       10       11 ar
  11       11       12 1
  12       11       13 ar
  13       13       14 ar
  14       14       15 ar
  15       15       16 ar
  16       16        6 ar
  17       16       10 ar
  18        4       17 1
  19       17       18 2
  20       18        2 1
  21       18       19 1
  22        5       20 1
  23        5       21 1
  24        7       22 1
  25        8       23 1
  26        9       24 1
  27       13       25 1
  28       14       26 1
  29       15       27 1

@<TRIPOS>MOLECULE

  27   29
SMALL
USER_CHARGES
@<TRIPOS>ATOM
   1 Br1         -0.9289     4.0281    -3.0020 Br           1    LIG   0.0000
   2 C2           0.1468     2.7863    -1.9316 C.2          1    LIG   0.0000
   3 N3          -0.0574     2.4599    -0.6803 N.2          1    LIG   0.0000
   4 N4           0.8794     1.6058    -0.3338 N.pl3        1    LIG   0.0000
   5 C5           1.0000     1.0000     1.0000 C.3          1    LIG   0.0000
   6 C6           1.8780     1.8780     1.8780 C.ar         1    LIG   0.0000
   7 C7           3.0007     2.4540     1.2916 C.ar         1    LIG   0.0000
   8 C8           3.8403     3.2674     2.0461 C.ar         1    LIG   0.0000
   9 C9           3.5470     3.4962     3.3865 C.ar         1    LIG   0.0000
  10 C10          2.4288     2.9293     3.9911 C.ar         1    LIG   0.0000
  11 C11          2.1506     3.1698     5.3345 C.ar         1    LIG   0.0000
  12 Br12         3.2959     4.3061     6.4484 Br           1    LIG   0.0000
  13 C13          1.0308     2.5962     5.9282 C.ar         1    LIG   0.0000
  14 C14          0.1870     1.7815     5.1803 C.ar         1    LIG   0.0000
  15 C15          0.4819     1.5540     3.8400 C.ar         1    LIG   0.0000
  16 C16          1.5973     2.1173     3.2233 C.ar         1    LIG   0.0000
  17 N17          1.6959     1.3652    -1.3356 N.2          1    LIG   0.0000
  18 C18          1.2855     2.0749    -2.3594 C.2          1    LIG   0.0000
  19 Br19         2.1018     2.1337    -4.1408 Br           1    LIG   0.0000
  20 H            1.4121     0.0926     0.9180 H            1    LIG   0.0000
  21 H            0.0926     0.9180     1.4121 H            1    LIG   0.0000
  22 H            3.2042     2.2833     0.3275 H            1    LIG   0.0000
  23 H            4.6478     3.6839     1.6284 H            1    LIG   0.0000
  24 H            4.1523     4.0804     3.9271 H            1    LIG   0.0000
  25 H            0.8324     2.7697     6.8929 H            1    LIG   0.0000
  26 H           -0.6198     1.3655     5.6000 H            1    LIG   0.0000
  27 H           -0.1250     0.9684     3.3027 H            1    LIG   0.0000
@<TRIPOS>BOND
   1        1        2 1
   2        2        3 2
   3        3        4 1
   4        4        5 1
   5        5        6 1
   6        6        7 ar
   7        7        8 ar
   8        8        9 ar
   9        9       10 ar
  10       10       11 ar
  11       11       12 1
  12       11       13 ar
  13       13       14 ar
  14       14       15 ar
  15       15       16 ar
  16       16        6 ar
  17       16       10 ar
  18        4       17 1
  19       17       18 2
  20       18        2 1
  21       18       19 1
  22        5       20 1
  23        5       21 1
  24        7       22 1
  25        8       23 1
  26        9       24 1
  27       13       25 1
  28       14       26 1
  29       15       27 1

@<TRIPOS>MOLECULE

  27   29
SMALL
USER_CHARGES
@<TRIPOS>ATOM
   1 Br1          0.4540     4.7774    -2.7867 Br           1    LIG   0.0000
   2 C2           0.6662     3.0674    -1.8509 C.2          1    LIG   0.0000
   3 N3           0.7399     2.8936    -0.5554 N.2          1    LIG   0.0000
   4 N4           0.8794     1.6058    -0.3338 N.pl3        1    LIG   0.0000
   5 C5           1.0000     1.0000     1.0000 C.3          1    LIG   0.0000
   6 C6           1.8780     1.8780     1.8780 C.ar         1    LIG   0.0000
   7 C7           3.0007     2.4540     1.2916 C.ar         1    LIG   0.0000
   8 C8           3.8403     3.2674     2.0461 C.ar         1    LIG   0.0000
   9 C9           3.5470     3.4962     3.3865 C.ar         1    LIG   0.0000
  10 C10          2.4288     2.9293     3.9911 C.ar         1    LIG   0.0000
  11 C11          2.1506     3.1698     5.3345 C.ar         1    LIG   0.0000
  12 Br12         3.2959     4.3061     6.4484 Br           1    LIG   0.0000
  13 C13          1.0308     2.5962     5.9282 C.ar         1    LIG   0.0000
  14 C14          0.1870     1.7815     5.1803 C.ar         1    LIG   0.0000
  15 C15          0.4819     1.5540     3.8400 C.ar         1    LIG   0.0000
  16 C16          1.5973     2.1173     3.2233 C.ar         1    LIG   0.0000
  17 N17          0.8989     0.9300    -1.4612 N.2          1    LIG   0.0000
  18 C18          0.7685     1.7919    -2.4412 C.2          1    LIG   0.0000
  19 Br19         0.7255     1.3820    -4.3578 Br           1    LIG   0.0000
  20 H            1.4121     0.0926     0.9180 H            1    LIG   0.0000
  21 H            0.0926     0.9180     1.4121 H            1    LIG   0.0000
  22 H            3.2042     2.2833     0.3275 H            1    LIG   0.0000
  23 H            4.6478     3.6839     1.6284 H            1    LIG   0.0000
  24 H            4.1523     4.0804     3.9271 H            1    LIG   0.0000
  25 H            0.8324     2.7697     6.8929 H            1    LIG   0.0000
  26 H           -0.6198     1.3655     5.6000 H            1    LIG   0.0000
  27 H           -0.1250     0.9684     3.3027 H            1    LIG   0.0000
@<TRIPOS>BOND
   1        1        2 1
   2        2        3 2
   3        3        4 1
   4        4        5 1
   5        5        6 1
   6        6        7 ar
   7        7        8 ar
   8        8        9 ar
   9        9       10 ar
  10       10       11 ar
  11       11       12 1
  12       11       13 ar
  13       13       14 ar
  14       14       15 ar
  15       15       16 ar
  16       16        6 ar
  17       16       10 ar
  18        4       17 1
  19       17       18 2
  20       18        2 1
  21       18       19 1
  22        5       20 1
  23        5       21 1
  24        7       22 1
  25        8       23 1
  26        9       24 1
  27       13       25 1
  28       14       26 1
  29       15       27 1

@<TRIPOS>MOLECULE

  27   29
SMALL
USER_CHARGES
@<TRIPOS>ATOM
   1 Br1         -1.2751     3.1895    -3.3515 Br           1    LIG   0.0000
   2 C2           0.0166     2.4715    -2.0628 C.2          1    LIG   0.0000
   3 N3          -0.2562     1.9757    -0.8822 N.2          1    LIG   0.0000
   4 N4           0.8794     1.6058    -0.3338 N.pl3        1    LIG   0.0000
   5 C5           1.0000     1.0000     1.0000 C.3          1    LIG   0.0000
   6 C6           1.8780     1.8780     1.8780 C.ar         1    LIG   0.0000
   7 C7           3.1849     2.1041     1.4573 C.ar         1    LIG   0.0000
   8 C8           4.0339     2.9000     2.2199 C.ar         1    LIG   0.0000
   9 C9           3.5644     3.4633     3.4019 C.ar         1    LIG   0.0000
  10 C10          2.2606     3.2491     3.8395 C.ar         1    LIG   0.0000
  11 C11          1.8076     3.8215     5.0257 C.ar         1    LIG   0.0000
  12 Br12         2.9566     4.9514     6.1424 Br           1    LIG   0.0000
  13 C13          0.5027     3.5988     5.4537 C.ar         1    LIG   0.0000
  14 C14         -0.3518     2.8038     4.6968 C.ar         1    LIG   0.0000
  15 C15          0.1196     2.2415     3.5148 C.ar         1    LIG   0.0000
  16 C16          1.4220     2.4502     3.0657 C.ar         1    LIG   0.0000
  17 N17          1.8939     1.8499    -1.1334 N.2          1    LIG   0.0000
  18 C18          1.4137     2.3897    -2.2280 C.2          1    LIG   0.0000
  19 Br19         2.4437     2.9709    -3.7915 Br           1    LIG   0.0000
  20 H            1.4121     0.0926     0.9180 H            1    LIG   0.0000
  21 H            0.0926     0.9180     1.4121 H            1    LIG   0.0000
  22 H            3.5140     1.6944     0.6065 H            1    LIG   0.0000
  23 H            4.9736     3.0657     1.9208 H            1    LIG   0.0000
  24 H            4.1766     4.0343     3.9489 H            1    LIG   0.0000
  25 H            0.1790     4.0104     6.3056 H            1    LIG   0.0000
  26 H           -1.2910     2.6389     4.9978 H            1    LIG   0.0000
  27 H           -0.4951     1.6702     2.9709 H            1    LIG   0.0000
@<TRIPOS>BOND
   1        1        2 1
   2        2        3 2
   3        3        4 1
   4        4        5 1
   5        5        6 1
   6        6        7 ar
   7        7        8 ar
   8        8        9 ar
   9        9       10 ar
  10       10       11 ar
  11       11       12 1
  12       11       13 ar
  13       13       14 ar
  14       14       15 ar
  15       15       16 ar
  16       16        6 ar
  17       16       10 ar
  18        4       17 1
  19       17       18 2
  20       18        2 1
  21       18       19 1
  22        5       20 1
  23        5       21 1
  24        7       22 1
  25        8       23 1
  26        9       24 1
  27       13       25 1
  28       14       26 1
  29       15       27 1

@<TRIPOS>MOLECULE

  27   29
SMALL
USER_CHARGES
@<TRIPOS>ATOM
   1 Br1         -0.1766     4.6116    -2.8050 Br           1    LIG   0.0000
   2 C2           0.4294     3.0053    -1.8577 C.2          1    LIG   0.0000
   3 N3           0.3761     2.7973    -0.5662 N.2          1    LIG   0.0000
   4 N4           0.8794     1.6058    -0.3338 N.pl3        1    LIG   0.0000
   5 C5           1.0000     1.0000     1.0000 C.3          1    LIG   0.0000
   6 C6           1.8780     1.8780     1.8780 C.ar         1    LIG   0.0000
   7 C7           1.4573     3.1849     2.1041 C.ar         1    LIG   0.0000
   8 C8           2.2199     4.0339     2.9000 C.ar         1    LIG   0.0000
   9 C9           3.4019     3.5644     3.4633 C.ar         1    LIG   0.0000
  10 C10          3.8395     2.2606     3.2491 C.ar         1    LIG   0.0000
  11 C11          5.0257     1.8076     3.8215 C.ar         1    LIG   0.0000
  12 Br12         6.1424     2.9566     4.9514 Br           1    LIG   0.0000
  13 C13          5.4537     0.5027     3.5988 C.ar         1    LIG   0.0000
  14 C14          4.6968    -0.3518     2.8038 C.ar         1    LIG   0.0000
  15 C15          3.5148     0.1196     2.2415 C.ar         1    LIG   0.0000
  16 C16          3.0657     1.4220     2.4502 C.ar         1    LIG   0.0000
  17 N17          1.2627     1.0269    -1.4501 N.2          1    LIG   0.0000
  18 C18          1.0046     1.8550    -2.4339 C.2          1    LIG   0.0000
  19 Br19         1.3538     1.5494    -4.3386 Br           1    LIG   0.0000
  20 H            1.4121     0.0926     0.9180 H            1    LIG   0.0000
  21 H            0.0926     0.9180     1.4121 H            1    LIG   0.0000
  22 H            0.6065     3.5140     1.6944 H            1    LIG   0.0000
  23 H            1.9208     4.9736     3.0657 H            1    LIG   0.0000
  24 H            3.9489     4.1766     4.0343 H            1    LIG   0.0000
  25 H            6.3056     0.1790     4.0104 H            1    LIG   0.0000
  26 H            4.9978    -1.2910     2.6389 H            1    LIG   0.0000
  27 H            2.9709    -0.4951     1.6702 H            1    LIG   0.0000
@<TRIPOS>BOND
   1        1        2 1
   2        2        3 2
   3        3        4 1
   4        4        5 1
   5        5        6 1
   6        6        7 ar
   7        7        8 ar
   8        8        9 ar
   9        9       10 ar
  10       10       11 ar
  11       11       12 1
  12       11       13 ar
  13       13       14 ar
  14       14       15 ar
  15       15       16 ar
  16       16        6 ar
  17       16       10 ar
  18        4       17 1
  19       17       18 2
  20       18        2 1
  21       18       19 1
  22        5       20 1
  23        5       21 1
  24        7       22 1
  25        8       23 1
  26        9       24 1
  27       13       25 1
  28       14       26 1
  29       15       27 1

