@<TRIPOS>MOLECULE
*****
 27 29 0 0 0
SMALL
USER_CHARGES

@<TRIPOS>ATOM
      1 Br1         0.4540    4.7774   -2.7867 Br      1  LIG1        0.0000
      2 C2          0.6662    3.0674   -1.8509 C.2     1  LIG1        0.0000
      3 N3          0.7399    2.8936   -0.5554 N.2     1  LIG1        0.0000
      4 N4          0.8794    1.6058   -0.3338 N.pl3   1  LIG1        0.0000
      5 C5          1.0000    1.0000    1.0000 C.3     1  LIG1        0.0000
      6 C6          1.8780    1.8780    1.8780 C.ar    1  LIG1        0.0000
      7 C7          3.0007    2.4540    1.2916 C.ar    1  LIG1        0.0000
      8 C8          3.8403    3.2674    2.0461 C.ar    1  LIG1        0.0000
      9 C9          3.5470    3.4962    3.3865 C.ar    1  LIG1        0.0000
     10 C10         2.4288    2.9293    3.9911 C.ar    1  LIG1        0.0000
     11 C11         2.1506    3.1698    5.3345 C.ar    1  LIG1        0.0000
     12 Br12        3.2959    4.3061    6.4484 Br      1  LIG1        0.0000
     13 C13         1.0308    2.5962    5.9282 C.ar    1  LIG1        0.0000
     14 C14         0.1870    1.7815    5.1803 C.ar    1  LIG1        0.0000
     15 C15         0.4819    1.5540    3.8400 C.ar    1  LIG1        0.0000
     16 C16         1.5973    2.1173    3.2233 C.ar    1  LIG1        0.0000
     17 N17         0.8989    0.9300   -1.4612 N.2     1  LIG1        0.0000
     18 C18         0.7685    1.7919   -2.4412 C.2     1  LIG1        0.0000
     19 Br19        0.7255    1.3820   -4.3578 Br      1  LIG1        0.0000
     20 H           1.4121    0.0926    0.9180 H       1  LIG1        0.0000
     21 H           0.0926    0.9180    1.4121 H       1  LIG1        0.0000
     22 H           3.2042    2.2833    0.3275 H       1  LIG1        0.0000
     23 H           4.6478    3.6839    1.6284 H       1  LIG1        0.0000
     24 H           4.1523    4.0804    3.9271 H       1  LIG1        0.0000
     25 H           0.8324    2.7697    6.8929 H       1  LIG1        0.0000
     26 H          -0.6198    1.3655    5.6000 H       1  LIG1        0.0000
     27 H          -0.1250    0.9684    3.3027 H       1  LIG1        0.0000
@<TRIPOS>BOND
     1     1     2    1
     2     2     3    2
     3     3     4    1
     4     4     5    1
     5     5     6    1
     6     6     7   ar
     7     7     8   ar
     8     8     9   ar
     9     9    10   ar
    10    10    11   ar
    11    11    12    1
    12    11    13   ar
    13    13    14   ar
    14    14    15   ar
    15    15    16   ar
    16    16     6   ar
    17    16    10   ar
    18     4    17    1
    19    17    18    2
    20    18     2    1
    21    18    19    1
    22     5    20    1
    23     5    21    1
    24     7    22    1
    25     8    23    1
    26     9    24    1
    27    13    25    1
    28    14    26    1
    29    15    27    1
