@<TRIPOS>MOLECULE
*****
 27 29 0 0 0
SMALL
USER_CHARGES

@<TRIPOS>ATOM
      1 Br1        -0.9289    4.0281   -3.0020 Br      1  LIG1        0.0000
      2 C2          0.1468    2.7863   -1.9316 C.2     1  LIG1        0.0000
      3 N3         -0.0574    2.4599   -0.6803 N.2     1  LIG1        0.0000
      4 N4          0.8794    1.6058   -0.3338 N.pl3   1  LIG1        0.0000
      5 C5          1.0000    1.0000    1.0000 C.3     1  LIG1        0.0000
      6 C6          1.8780    1.8780    1.8780 C.ar    1  LIG1        0.0000
      7 C7          1.2414    2.7258    2.7791 C.ar    1  LIG1        0.0000
      8 C8          1.9936    3.5516    3.6086 C.ar    1  LIG1        0.0000
      9 C9          3.3819    3.5210    3.5267 C.ar    1  LIG1        0.0000
     10 C10         4.0372    2.6799    2.6321 C.ar    1  LIG1        0.0000
     11 C11         5.4282    2.6626    2.5641 C.ar    1  LIG1        0.0000
     12 Br12        6.5414    3.8026    3.7064 Br      1  LIG1        0.0000
     13 C13         6.0719    1.8186    1.6647 C.ar    1  LIG1        0.0000
     14 C14         5.3265    0.9905    0.8318 C.ar    1  LIG1        0.0000
     15 C15         3.9382    1.0224    0.9153 C.ar    1  LIG1        0.0000
     16 C16         3.2711    1.8588    1.8080 C.ar    1  LIG1        0.0000
     17 N17         1.6959    1.3652   -1.3356 N.2     1  LIG1        0.0000
     18 C18         1.2855    2.0749   -2.3594 C.2     1  LIG1        0.0000
     19 Br19        2.1018    2.1337   -4.1408 Br      1  LIG1        0.0000
     20 H           1.4121    0.0926    0.9180 H       1  LIG1        0.0000
     21 H           0.0926    0.9180    1.4121 H       1  LIG1        0.0000
     22 H           0.2428    2.7416    2.8305 H       1  LIG1        0.0000
     23 H           1.5401    4.1618    4.2582 H       1  LIG1        0.0000
     24 H           3.9205    4.1160    4.1232 H       1  LIG1        0.0000
     25 H           7.0707    1.8073    1.6169 H       1  LIG1        0.0000
     26 H           5.7819    0.3813    0.1825 H       1  LIG1        0.0000
     27 H           3.4028    0.4268    0.3165 H       1  LIG1        0.0000
@<TRIPOS>BOND
     1     1     2    1
     2     2     3    2
     3     3     4    1
     4     4     5    1
     5     5     6    1
     6     6     7   ar
     7     7     8   ar
     8     8     9   ar
     9     9    10   ar
    10    10    11   ar
    11    11    12    1
    12    11    13   ar
    13    13    14   ar
    14    14    15   ar
    15    15    16   ar
    16    16     6   ar
    17    16    10   ar
    18     4    17    1
    19    17    18    2
    20    18     2    1
    21    18    19    1
    22     5    20    1
    23     5    21    1
    24     7    22    1
    25     8    23    1
    26     9    24    1
    27    13    25    1
    28    14    26    1
    29    15    27    1
