@<TRIPOS>MOLECULE
*****
 27 29 0 0 0
SMALL
USER_CHARGES

@<TRIPOS>ATOM
      1 Br1        -1.2751    3.1895   -3.3515 Br      1  LIG1        0.0000
      2 C2          0.0166    2.4715   -2.0628 C.2     1  LIG1        0.0000
      3 N3         -0.2562    1.9757   -0.8822 N.2     1  LIG1        0.0000
      4 N4          0.8794    1.6058   -0.3338 N.pl3   1  LIG1        0.0000
      5 C5          1.0000    1.0000    1.0000 C.3     1  LIG1        0.0000
      6 C6          1.8780    1.8780    1.8780 C.ar    1  LIG1        0.0000
      7 C7          3.1849    2.1041    1.4573 C.ar    1  LIG1        0.0000
      8 C8          4.0339    2.9000    2.2199 C.ar    1  LIG1        0.0000
      9 C9          3.5644    3.4633    3.4019 C.ar    1  LIG1        0.0000
     10 C10         2.2606    3.2491    3.8395 C.ar    1  LIG1        0.0000
     11 C11         1.8076    3.8215    5.0257 C.ar    1  LIG1        0.0000
     12 Br12        2.9566    4.9514    6.1424 Br      1  LIG1        0.0000
     13 C13         0.5027    3.5988    5.4537 C.ar    1  LIG1        0.0000
     14 C14        -0.3518    2.8038    4.6968 C.ar    1  LIG1        0.0000
     15 C15         0.1196    2.2415    3.5148 C.ar    1  LIG1        0.0000
     16 C16         1.4220    2.4502    3.0657 C.ar    1  LIG1        0.0000
     17 N17         1.8939    1.8499   -1.1334 N.2     1  LIG1        0.0000
     18 C18         1.4137    2.3897   -2.2280 C.2     1  LIG1        0.0000
     19 Br19        2.4437    2.9709   -3.7915 Br      1  LIG1        0.0000
     20 H           1.4121    0.0926    0.9180 H       1  LIG1        0.0000
     21 H           0.0926    0.9180    1.4121 H       1  LIG1        0.0000
     22 H           3.5140    1.6944    0.6065 H       1  LIG1        0.0000
     23 H           4.9736    3.0657    1.9208 H       1  LIG1        0.0000
     24 H           4.1766    4.0343    3.9489 H       1  LIG1        0.0000
     25 H           0.1790    4.0104    6.3056 H       1  LIG1        0.0000
     26 H          -1.2910    2.6389    4.9978 H       1  LIG1        0.0000
     27 H          -0.4951    1.6702    2.9709 H       1  LIG1        0.0000
@<TRIPOS>BOND
     1     1     2    1
     2     2     3    2
     3     3     4    1
     4     4     5    1
     5     5     6    1
     6     6     7   ar
     7     7     8   ar
     8     8     9   ar
     9     9    10   ar
    10    10    11   ar
    11    11    12    1
    12    11    13   ar
    13    13    14   ar
    14    14    15   ar
    15    15    16   ar
    16    16     6   ar
    17    16    10   ar
    18     4    17    1
    19    17    18    2
    20    18     2    1
    21    18    19    1
    22     5    20    1
    23     5    21    1
    24     7    22    1
    25     8    23    1
    26     9    24    1
    27    13    25    1
    28    14    26    1
    29    15    27    1
