@<TRIPOS>MOLECULE
*****
 27 29 0 0 0
SMALL
USER_CHARGES

@<TRIPOS>ATOM
      1 Br1         0.4540    4.7774   -2.7867 Br      1  LIG1        0.0000
      2 C2          0.6662    3.0674   -1.8509 C.2     1  LIG1        0.0000
      3 N3          0.7399    2.8936   -0.5554 N.2     1  LIG1        0.0000
      4 N4          0.8794    1.6058   -0.3338 N.pl3   1  LIG1        0.0000
      5 C5          1.0000    1.0000    1.0000 C.3     1  LIG1        0.0000
      6 C6          1.8780    1.8780    1.8780 C.ar    1  LIG1        0.0000
      7 C7          3.0402    1.3127    2.3934 C.ar    1  LIG1        0.0000
      8 C8          3.8827    2.0687    3.2025 C.ar    1  LIG1        0.0000
      9 C9          3.5512    3.3887    3.4898 C.ar    1  LIG1        0.0000
     10 C10         2.3933    3.9722    2.9837 C.ar    1  LIG1        0.0000
     11 C11         2.0775    5.2956    3.2817 C.ar    1  LIG1        0.0000
     12 Br12        3.2245    6.4104    4.4155 Br      1  LIG1        0.0000
     13 C13         0.9165    5.8674    2.7713 C.ar    1  LIG1        0.0000
     14 C14         0.0691    5.1176    1.9621 C.ar    1  LIG1        0.0000
     15 C15         0.4025    3.7977    1.6758 C.ar    1  LIG1        0.0000
     16 C16         1.5596    3.2033    2.1751 C.ar    1  LIG1        0.0000
     17 N17         0.8989    0.9300   -1.4612 N.2     1  LIG1        0.0000
     18 C18         0.7685    1.7919   -2.4412 C.2     1  LIG1        0.0000
     19 Br19        0.7255    1.3820   -4.3578 Br      1  LIG1        0.0000
     20 H           1.4121    0.0926    0.9180 H       1  LIG1        0.0000
     21 H           0.0926    0.9180    1.4121 H       1  LIG1        0.0000
     22 H           3.2701    0.3626    2.1822 H       1  LIG1        0.0000
     23 H           4.7193    1.6665    3.5743 H       1  LIG1        0.0000
     24 H           4.1576    3.9300    4.0722 H       1  LIG1        0.0000
     25 H           0.6910    6.8177    2.9863 H       1  LIG1        0.0000
     26 H          -0.7673    5.5215    1.5916 H       1  LIG1        0.0000
     27 H          -0.2069    3.2591    1.0939 H       1  LIG1        0.0000
@<TRIPOS>BOND
     1     1     2    1
     2     2     3    2
     3     3     4    1
     4     4     5    1
     5     5     6    1
     6     6     7   ar
     7     7     8   ar
     8     8     9   ar
     9     9    10   ar
    10    10    11   ar
    11    11    12    1
    12    11    13   ar
    13    13    14   ar
    14    14    15   ar
    15    15    16   ar
    16    16     6   ar
    17    16    10   ar
    18     4    17    1
    19    17    18    2
    20    18     2    1
    21    18    19    1
    22     5    20    1
    23     5    21    1
    24     7    22    1
    25     8    23    1
    26     9    24    1
    27    13    25    1
    28    14    26    1
    29    15    27    1
