@<TRIPOS>MOLECULE
*****
 27 29 0 0 0
SMALL
USER_CHARGES

@<TRIPOS>ATOM
      1 Br1        -0.1766    4.6116   -2.8050 Br      1  LIG1        0.0000
      2 C2          0.4294    3.0053   -1.8577 C.2     1  LIG1        0.0000
      3 N3          0.3761    2.7973   -0.5662 N.2     1  LIG1        0.0000
      4 N4          0.8794    1.6058   -0.3338 N.pl3   1  LIG1        0.0000
      5 C5          1.0000    1.0000    1.0000 C.3     1  LIG1        0.0000
      6 C6          1.8780    1.8780    1.8780 C.ar    1  LIG1        0.0000
      7 C7          1.4573    3.1849    2.1041 C.ar    1  LIG1        0.0000
      8 C8          2.2199    4.0339    2.9000 C.ar    1  LIG1        0.0000
      9 C9          3.4019    3.5644    3.4633 C.ar    1  LIG1        0.0000
     10 C10         3.8395    2.2606    3.2491 C.ar    1  LIG1        0.0000
     11 C11         5.0257    1.8076    3.8215 C.ar    1  LIG1        0.0000
     12 Br12        6.1424    2.9566    4.9514 Br      1  LIG1        0.0000
     13 C13         5.4537    0.5027    3.5988 C.ar    1  LIG1        0.0000
     14 C14         4.6968   -0.3518    2.8038 C.ar    1  LIG1        0.0000
     15 C15         3.5148    0.1196    2.2415 C.ar    1  LIG1        0.0000
     16 C16         3.0657    1.4220    2.4502 C.ar    1  LIG1        0.0000
     17 N17         1.2627    1.0269   -1.4501 N.2     1  LIG1        0.0000
     18 C18         1.0046    1.8550   -2.4339 C.2     1  LIG1        0.0000
     19 Br19        1.3538    1.5494   -4.3386 Br      1  LIG1        0.0000
     20 H           1.4121    0.0926    0.9180 H       1  LIG1        0.0000
     21 H           0.0926    0.9180    1.4121 H       1  LIG1        0.0000
     22 H           0.6065    3.5140    1.6944 H       1  LIG1        0.0000
     23 H           1.9208    4.9736    3.0657 H       1  LIG1        0.0000
     24 H           3.9489    4.1766    4.0343 H       1  LIG1        0.0000
     25 H           6.3056    0.1790    4.0104 H       1  LIG1        0.0000
     26 H           4.9978   -1.2910    2.6389 H       1  LIG1        0.0000
     27 H           2.9709   -0.4951    1.6702 H       1  LIG1        0.0000
@<TRIPOS>BOND
     1     1     2    1
     2     2     3    2
     3     3     4    1
     4     4     5    1
     5     5     6    1
     6     6     7   ar
     7     7     8   ar
     8     8     9   ar
     9     9    10   ar
    10    10    11   ar
    11    11    12    1
    12    11    13   ar
    13    13    14   ar
    14    14    15   ar
    15    15    16   ar
    16    16     6   ar
    17    16    10   ar
    18     4    17    1
    19    17    18    2
    20    18     2    1
    21    18    19    1
    22     5    20    1
    23     5    21    1
    24     7    22    1
    25     8    23    1
    26     9    24    1
    27    13    25    1
    28    14    26    1
    29    15    27    1
