@<TRIPOS>MOLECULE
*****
 27 29 0 0 0
SMALL
USER_CHARGES

@<TRIPOS>ATOM
      1 Br1        -1.2290    2.5987   -3.6240 Br      1  LIG1        0.0000
      2 C2          0.0338    2.2496   -2.1651 C.2     1  LIG1        0.0000
      3 N3         -0.2289    1.6348   -1.0395 N.2     1  LIG1        0.0000
      4 N4          0.8794    1.6058   -0.3338 N.pl3   1  LIG1        0.0000
      5 C5          1.0000    1.0000    1.0000 C.3     1  LIG1        0.0000
      6 C6          1.8780    1.8780    1.8780 C.ar    1  LIG1        0.0000
      7 C7          2.2180    3.1366    1.3917 C.ar    1  LIG1        0.0000
      8 C8          3.0183    3.9837    2.1518 C.ar    1  LIG1        0.0000
      9 C9          3.4733    3.5602    3.3962 C.ar    1  LIG1        0.0000
     10 C10         3.1440    2.3051    3.9000 C.ar    1  LIG1        0.0000
     11 C11         3.6085    1.8980    5.1484 C.ar    1  LIG1        0.0000
     12 Br12        4.7390    3.0467    6.2647 Br      1  LIG1        0.0000
     13 C13         3.2740    0.6405    5.6407 C.ar    1  LIG1        0.0000
     14 C14         2.4746   -0.2121    4.8863 C.ar    1  LIG1        0.0000
     15 C15         2.0205    0.2134    3.6421 C.ar    1  LIG1        0.0000
     16 C16         2.3420    1.4679    3.1280 C.ar    1  LIG1        0.0000
     17 N17         1.8659    2.1910   -0.9760 N.2     1  LIG1        0.0000
     18 C18         1.3953    2.6110   -2.1258 C.2     1  LIG1        0.0000
     19 Br19        2.3954    3.5598   -3.5197 Br      1  LIG1        0.0000
     20 H           1.4121    0.0926    0.9180 H       1  LIG1        0.0000
     21 H           0.0926    0.9180    1.4121 H       1  LIG1        0.0000
     22 H           1.8870    3.4323    0.4956 H       1  LIG1        0.0000
     23 H           3.2644    4.8893    1.8064 H       1  LIG1        0.0000
     24 H           4.0491    4.1703    3.9404 H       1  LIG1        0.0000
     25 H           3.6083    0.3495    6.5371 H       1  LIG1        0.0000
     26 H           2.2300   -1.1175    5.2332 H       1  LIG1        0.0000
     27 H           1.4457   -0.3998    3.1002 H       1  LIG1        0.0000
@<TRIPOS>BOND
     1     1     2    1
     2     2     3    2
     3     3     4    1
     4     4     5    1
     5     5     6    1
     6     6     7   ar
     7     7     8   ar
     8     8     9   ar
     9     9    10   ar
    10    10    11   ar
    11    11    12    1
    12    11    13   ar
    13    13    14   ar
    14    14    15   ar
    15    15    16   ar
    16    16     6   ar
    17    16    10   ar
    18     4    17    1
    19    17    18    2
    20    18     2    1
    21    18    19    1
    22     5    20    1
    23     5    21    1
    24     7    22    1
    25     8    23    1
    26     9    24    1
    27    13    25    1
    28    14    26    1
    29    15    27    1
