@<TRIPOS>MOLECULE
*****
 27 29 0 0 0
SMALL
USER_CHARGES

@<TRIPOS>ATOM
      1 Br1        -0.9289    4.0281   -3.0020 Br      1  LIG1        0.0000
      2 C2          0.1468    2.7863   -1.9316 C.2     1  LIG1        0.0000
      3 N3         -0.0574    2.4599   -0.6803 N.2     1  LIG1        0.0000
      4 N4          0.8794    1.6058   -0.3338 N.pl3   1  LIG1        0.0000
      5 C5          1.0000    1.0000    1.0000 C.3     1  LIG1        0.0000
      6 C6          1.8780    1.8780    1.8780 C.ar    1  LIG1        0.0000
      7 C7          2.3934    3.0402    1.3127 C.ar    1  LIG1        0.0000
      8 C8          3.2025    3.8827    2.0687 C.ar    1  LIG1        0.0000
      9 C9          3.4898    3.5512    3.3887 C.ar    1  LIG1        0.0000
     10 C10         2.9837    2.3933    3.9722 C.ar    1  LIG1        0.0000
     11 C11         3.2817    2.0775    5.2956 C.ar    1  LIG1        0.0000
     12 Br12        4.4155    3.2245    6.4104 Br      1  LIG1        0.0000
     13 C13         2.7713    0.9165    5.8674 C.ar    1  LIG1        0.0000
     14 C14         1.9621    0.0691    5.1176 C.ar    1  LIG1        0.0000
     15 C15         1.6758    0.4025    3.7977 C.ar    1  LIG1        0.0000
     16 C16         2.1751    1.5596    3.2033 C.ar    1  LIG1        0.0000
     17 N17         1.6959    1.3652   -1.3356 N.2     1  LIG1        0.0000
     18 C18         1.2855    2.0749   -2.3594 C.2     1  LIG1        0.0000
     19 Br19        2.1018    2.1337   -4.1408 Br      1  LIG1        0.0000
     20 H           1.4121    0.0926    0.9180 H       1  LIG1        0.0000
     21 H           0.0926    0.9180    1.4121 H       1  LIG1        0.0000
     22 H           2.1822    3.2701    0.3626 H       1  LIG1        0.0000
     23 H           3.5743    4.7193    1.6665 H       1  LIG1        0.0000
     24 H           4.0722    4.1576    3.9300 H       1  LIG1        0.0000
     25 H           2.9863    0.6910    6.8177 H       1  LIG1        0.0000
     26 H           1.5916   -0.7673    5.5215 H       1  LIG1        0.0000
     27 H           1.0939   -0.2069    3.2591 H       1  LIG1        0.0000
@<TRIPOS>BOND
     1     1     2    1
     2     2     3    2
     3     3     4    1
     4     4     5    1
     5     5     6    1
     6     6     7   ar
     7     7     8   ar
     8     8     9   ar
     9     9    10   ar
    10    10    11   ar
    11    11    12    1
    12    11    13   ar
    13    13    14   ar
    14    14    15   ar
    15    15    16   ar
    16    16     6   ar
    17    16    10   ar
    18     4    17    1
    19    17    18    2
    20    18     2    1
    21    18    19    1
    22     5    20    1
    23     5    21    1
    24     7    22    1
    25     8    23    1
    26     9    24    1
    27    13    25    1
    28    14    26    1
    29    15    27    1
