@<TRIPOS>MOLECULE

  29   29
SMALL
USER_CHARGES
@<TRIPOS>ATOM
   1 C1           3.8652    -4.7794     1.0014 C.3          1    LIG   0.0000
   2 C2           2.9703    -3.5516     0.9986 C.ar         1    LIG   0.0000
   3 C3           3.0515    -2.6387     2.0445 C.ar         1    LIG   0.0000
   4 C4           2.2357    -1.5120     2.0490 C.ar         1    LIG   0.0000
   5 C5           1.3437    -1.3148     1.0000 C.ar         1    LIG   0.0000
   6 C6           0.4916    -0.1419     1.0000 C.2          1    LIG   0.0000
   7 N7           1.0000     1.0000     1.0000 N.2          1    LIG   0.0000
   8 N8           2.3700     1.0000     1.0000 N.pl3        1    LIG   0.0000
   9 C9           3.1050     2.2731     1.0000 C.3          1    LIG   0.0000
  10 C10          4.5806     2.0062     1.2488 C.3          1    LIG   0.0000
  11 C11          2.9339     2.9569    -0.3466 C.3          1    LIG   0.0000
  12 F12          1.6380     3.0924    -0.6135 F            1    LIG   0.0000
  13 F13          3.5069     4.1566    -0.3107 F            1    LIG   0.0000
  14 F14          3.5069     2.2201    -1.2941 F            1    LIG   0.0000
  15 C15          1.2551    -2.2235    -0.0499 C.ar         1    LIG   0.0000
  16 C16          2.0744    -3.3471    -0.0464 C.ar         1    LIG   0.0000
  17 H            2.7468     2.8647     1.7222 H            1    LIG   0.0000
  18 H            3.6821    -5.3272     0.1851 H            1    LIG   0.0000
  19 H            4.8235    -4.4934     1.0028 H            1    LIG   0.0000
  20 H            3.6792    -5.3256     1.8181 H            1    LIG   0.0000
  21 H            3.6963    -2.7922     2.7933 H            1    LIG   0.0000
  22 H            2.2898    -0.8515     2.7978 H            1    LIG   0.0000
  23 H           -0.5029    -0.2465     1.0000 H            1    LIG   0.0000
  24 H            2.8700     0.1340     1.0000 H            1    LIG   0.0000
  25 H            5.0806     2.8722     1.2488 H            1    LIG   0.0000
  26 H            4.6931     1.5563     2.1348 H            1    LIG   0.0000
  27 H            4.9387     1.4145     0.5266 H            1    LIG   0.0000
  28 H            0.6098    -2.0704    -0.7983 H            1    LIG   0.0000
  29 H            2.0197    -4.0082    -0.7947 H            1    LIG   0.0000
@<TRIPOS>BOND
   1        1        2 1
   2        2        3 ar
   3        3        4 ar
   4        4        5 ar
   5        5        6 1
   6        6        7 2
   7        7        8 1
   8        8        9 1
   9        9       10 1
  10        9       11 1
  11       11       12 1
  12       11       13 1
  13       11       14 1
  14        5       15 ar
  15       15       16 ar
  16       16        2 ar
  17        9       17 1
  18        1       18 1
  19        1       19 1
  20        1       20 1
  21        3       21 1
  22        4       22 1
  23        6       23 1
  24        8       24 1
  25       10       25 1
  26       10       26 1
  27       10       27 1
  28       15       28 1
  29       16       29 1

@<TRIPOS>MOLECULE

  29   29
SMALL
USER_CHARGES
@<TRIPOS>ATOM
   1 C1           3.8619    -4.7818     0.9963 C.3          1    LIG   0.0000
   2 C2           2.9679    -3.5534     0.9997 C.ar         1    LIG   0.0000
   3 C3           3.0510    -2.6390    -0.0448 C.ar         1    LIG   0.0000
   4 C4           2.2357    -1.5120    -0.0490 C.ar         1    LIG   0.0000
   5 C5           1.3437    -1.3148     1.0000 C.ar         1    LIG   0.0000
   6 C6           0.4916    -0.1419     1.0000 C.2          1    LIG   0.0000
   7 N7           1.0000     1.0000     1.0000 N.2          1    LIG   0.0000
   8 N8           2.3700     1.0000     1.0000 N.pl3        1    LIG   0.0000
   9 C9           3.1050     2.2731     1.0000 C.3          1    LIG   0.0000
  10 C10          4.5806     2.0062     1.2488 C.3          1    LIG   0.0000
  11 C11          2.9339     2.9569    -0.3466 C.3          1    LIG   0.0000
  12 F12          1.6380     3.0924    -0.6135 F            1    LIG   0.0000
  13 F13          3.5069     4.1566    -0.3107 F            1    LIG   0.0000
  14 F14          3.5069     2.2201    -1.2941 F            1    LIG   0.0000
  15 C15          1.2547    -2.2238     2.0496 C.ar         1    LIG   0.0000
  16 C16          2.0736    -3.3477     2.0458 C.ar         1    LIG   0.0000
  17 H            2.7468     2.8647     1.7222 H            1    LIG   0.0000
  18 H            3.6775    -5.3306     1.8116 H            1    LIG   0.0000
  19 H            3.6764    -5.3268     0.1786 H            1    LIG   0.0000
  20 H            4.8204    -4.4965     0.9963 H            1    LIG   0.0000
  21 H            3.6969    -2.7918    -0.7929 H            1    LIG   0.0000
  22 H            2.2901    -0.8512    -0.7976 H            1    LIG   0.0000
  23 H           -0.5029    -0.2465     1.0000 H            1    LIG   0.0000
  24 H            2.8700     0.1340     1.0000 H            1    LIG   0.0000
  25 H            5.0806     2.8722     1.2488 H            1    LIG   0.0000
  26 H            4.6931     1.5563     2.1348 H            1    LIG   0.0000
  27 H            4.9387     1.4145     0.5266 H            1    LIG   0.0000
  28 H            0.6093    -2.0707     2.7980 H            1    LIG   0.0000
  29 H            2.0198    -4.0081     2.7947 H            1    LIG   0.0000
@<TRIPOS>BOND
   1        1        2 1
   2        2        3 ar
   3        3        4 ar
   4        4        5 ar
   5        5        6 1
   6        6        7 2
   7        7        8 1
   8        8        9 1
   9        9       10 1
  10        9       11 1
  11       11       12 1
  12       11       13 1
  13       11       14 1
  14        5       15 ar
  15       15       16 ar
  16       16        2 ar
  17        9       17 1
  18        1       18 1
  19        1       19 1
  20        1       20 1
  21        3       21 1
  22        4       22 1
  23        6       23 1
  24        8       24 1
  25       10       25 1
  26       10       26 1
  27       10       27 1
  28       15       28 1
  29       16       29 1

@<TRIPOS>MOLECULE

  29   29
SMALL
USER_CHARGES
@<TRIPOS>ATOM
   1 C1           3.8652    -4.7794     1.0014 C.3          1    LIG   0.0000
   2 C2           2.9703    -3.5516     0.9986 C.ar         1    LIG   0.0000
   3 C3           3.0515    -2.6387     2.0445 C.ar         1    LIG   0.0000
   4 C4           2.2357    -1.5120     2.0490 C.ar         1    LIG   0.0000
   5 C5           1.3437    -1.3148     1.0000 C.ar         1    LIG   0.0000
   6 C6           0.4916    -0.1419     1.0000 C.2          1    LIG   0.0000
   7 N7           1.0000     1.0000     1.0000 N.2          1    LIG   0.0000
   8 N8           2.3700     1.0000     1.0000 N.pl3        1    LIG   0.0000
   9 C9           3.1050     2.2731     1.0000 C.3          1    LIG   0.0000
  10 C10          4.4331     2.0913     0.2835 C.3          1    LIG   0.0000
  11 C11          2.2835     3.3324     0.2835 C.3          1    LIG   0.0000
  12 F12          1.0802     3.4145     0.8440 F            1    LIG   0.0000
  13 F13          2.8976     4.5084     0.3776 F            1    LIG   0.0000
  14 F14          2.1540     3.0012    -0.9981 F            1    LIG   0.0000
  15 C15          1.2551    -2.2235    -0.0499 C.ar         1    LIG   0.0000
  16 C16          2.0744    -3.3471    -0.0464 C.ar         1    LIG   0.0000
  17 H            3.2717     2.5617     1.9428 H            1    LIG   0.0000
  18 H            3.6821    -5.3272     0.1851 H            1    LIG   0.0000
  19 H            4.8235    -4.4934     1.0028 H            1    LIG   0.0000
  20 H            3.6792    -5.3256     1.8181 H            1    LIG   0.0000
  21 H            3.6963    -2.7922     2.7933 H            1    LIG   0.0000
  22 H            2.2898    -0.8515     2.7978 H            1    LIG   0.0000
  23 H           -0.5029    -0.2465     1.0000 H            1    LIG   0.0000
  24 H            2.8700     0.1340     1.0000 H            1    LIG   0.0000
  25 H            4.9331     2.9573     0.2835 H            1    LIG   0.0000
  26 H            4.9736     1.3944     0.7549 H            1    LIG   0.0000
  27 H            4.2665     1.8026    -0.6593 H            1    LIG   0.0000
  28 H            0.6098    -2.0704    -0.7983 H            1    LIG   0.0000
  29 H            2.0197    -4.0082    -0.7947 H            1    LIG   0.0000
@<TRIPOS>BOND
   1        1        2 1
   2        2        3 ar
   3        3        4 ar
   4        4        5 ar
   5        5        6 1
   6        6        7 2
   7        7        8 1
   8        8        9 1
   9        9       10 1
  10        9       11 1
  11       11       12 1
  12       11       13 1
  13       11       14 1
  14        5       15 ar
  15       15       16 ar
  16       16        2 ar
  17        9       17 1
  18        1       18 1
  19        1       19 1
  20        1       20 1
  21        3       21 1
  22        4       22 1
  23        6       23 1
  24        8       24 1
  25       10       25 1
  26       10       26 1
  27       10       27 1
  28       15       28 1
  29       16       29 1

@<TRIPOS>MOLECULE

  29   29
SMALL
USER_CHARGES
@<TRIPOS>ATOM
   1 C1           3.8619    -4.7818     0.9963 C.3          1    LIG   0.0000
   2 C2           2.9679    -3.5534     0.9997 C.ar         1    LIG   0.0000
   3 C3           3.0510    -2.6390    -0.0448 C.ar         1    LIG   0.0000
   4 C4           2.2357    -1.5120    -0.0490 C.ar         1    LIG   0.0000
   5 C5           1.3437    -1.3148     1.0000 C.ar         1    LIG   0.0000
   6 C6           0.4916    -0.1419     1.0000 C.2          1    LIG   0.0000
   7 N7           1.0000     1.0000     1.0000 N.2          1    LIG   0.0000
   8 N8           2.3700     1.0000     1.0000 N.pl3        1    LIG   0.0000
   9 C9           3.1050     2.2731     1.0000 C.3          1    LIG   0.0000
  10 C10          4.4331     2.0913     0.2835 C.3          1    LIG   0.0000
  11 C11          2.2835     3.3324     0.2835 C.3          1    LIG   0.0000
  12 F12          1.0802     3.4145     0.8440 F            1    LIG   0.0000
  13 F13          2.8976     4.5084     0.3776 F            1    LIG   0.0000
  14 F14          2.1540     3.0012    -0.9981 F            1    LIG   0.0000
  15 C15          1.2547    -2.2238     2.0496 C.ar         1    LIG   0.0000
  16 C16          2.0736    -3.3477     2.0458 C.ar         1    LIG   0.0000
  17 H            3.2717     2.5617     1.9428 H            1    LIG   0.0000
  18 H            3.6775    -5.3306     1.8116 H            1    LIG   0.0000
  19 H            3.6764    -5.3268     0.1786 H            1    LIG   0.0000
  20 H            4.8204    -4.4965     0.9963 H            1    LIG   0.0000
  21 H            3.6969    -2.7918    -0.7929 H            1    LIG   0.0000
  22 H            2.2901    -0.8512    -0.7976 H            1    LIG   0.0000
  23 H           -0.5029    -0.2465     1.0000 H            1    LIG   0.0000
  24 H            2.8700     0.1340     1.0000 H            1    LIG   0.0000
  25 H            4.9331     2.9573     0.2835 H            1    LIG   0.0000
  26 H            4.9736     1.3944     0.7549 H            1    LIG   0.0000
  27 H            4.2665     1.8026    -0.6593 H            1    LIG   0.0000
  28 H            0.6093    -2.0707     2.7980 H            1    LIG   0.0000
  29 H            2.0198    -4.0081     2.7947 H            1    LIG   0.0000
@<TRIPOS>BOND
   1        1        2 1
   2        2        3 ar
   3        3        4 ar
   4        4        5 ar
   5        5        6 1
   6        6        7 2
   7        7        8 1
   8        8        9 1
   9        9       10 1
  10        9       11 1
  11       11       12 1
  12       11       13 1
  13       11       14 1
  14        5       15 ar
  15       15       16 ar
  16       16        2 ar
  17        9       17 1
  18        1       18 1
  19        1       19 1
  20        1       20 1
  21        3       21 1
  22        4       22 1
  23        6       23 1
  24        8       24 1
  25       10       25 1
  26       10       26 1
  27       10       27 1
  28       15       28 1
  29       16       29 1

@<TRIPOS>MOLECULE

  29   29
SMALL
USER_CHARGES
@<TRIPOS>ATOM
   1 C1           3.8652    -4.7794     1.0014 C.3          1    LIG   0.0000
   2 C2           2.9703    -3.5516     0.9986 C.ar         1    LIG   0.0000
   3 C3           3.0515    -2.6387     2.0445 C.ar         1    LIG   0.0000
   4 C4           2.2357    -1.5120     2.0490 C.ar         1    LIG   0.0000
   5 C5           1.3437    -1.3148     1.0000 C.ar         1    LIG   0.0000
   6 C6           0.4916    -0.1419     1.0000 C.2          1    LIG   0.0000
   7 N7           1.0000     1.0000     1.0000 N.2          1    LIG   0.0000
   8 N8           2.3700     1.0000     1.0000 N.pl3        1    LIG   0.0000
   9 C9           3.1050     2.2731     1.0000 C.3          1    LIG   0.0000
  10 C10          4.1561     2.2513     2.0978 C.3          1    LIG   0.0000
  11 C11          3.7828     2.4668    -0.3466 C.3          1    LIG   0.0000
  12 F12          2.8766     2.3773    -1.3160 F            1    LIG   0.0000
  13 F13          4.3568     3.6659    -0.3856 F            1    LIG   0.0000
  14 F14          4.7081     1.5266    -0.5166 F            1    LIG   0.0000
  15 C15          1.2551    -2.2235    -0.0499 C.ar         1    LIG   0.0000
  16 C16          2.0744    -3.3471    -0.0464 C.ar         1    LIG   0.0000
  17 H            2.4676     3.0260     1.1637 H            1    LIG   0.0000
  18 H            3.6821    -5.3272     0.1851 H            1    LIG   0.0000
  19 H            4.8235    -4.4934     1.0028 H            1    LIG   0.0000
  20 H            3.6792    -5.3256     1.8181 H            1    LIG   0.0000
  21 H            3.6963    -2.7922     2.7933 H            1    LIG   0.0000
  22 H            2.2898    -0.8515     2.7978 H            1    LIG   0.0000
  23 H           -0.5029    -0.2465     1.0000 H            1    LIG   0.0000
  24 H            2.8700     0.1340     1.0000 H            1    LIG   0.0000
  25 H            4.6561     3.1173     2.0978 H            1    LIG   0.0000
  26 H            3.7102     2.1238     2.9837 H            1    LIG   0.0000
  27 H            4.7935     1.4983     1.9341 H            1    LIG   0.0000
  28 H            0.6098    -2.0704    -0.7983 H            1    LIG   0.0000
  29 H            2.0197    -4.0082    -0.7947 H            1    LIG   0.0000
@<TRIPOS>BOND
   1        1        2 1
   2        2        3 ar
   3        3        4 ar
   4        4        5 ar
   5        5        6 1
   6        6        7 2
   7        7        8 1
   8        8        9 1
   9        9       10 1
  10        9       11 1
  11       11       12 1
  12       11       13 1
  13       11       14 1
  14        5       15 ar
  15       15       16 ar
  16       16        2 ar
  17        9       17 1
  18        1       18 1
  19        1       19 1
  20        1       20 1
  21        3       21 1
  22        4       22 1
  23        6       23 1
  24        8       24 1
  25       10       25 1
  26       10       26 1
  27       10       27 1
  28       15       28 1
  29       16       29 1

@<TRIPOS>MOLECULE

  29   29
SMALL
USER_CHARGES
@<TRIPOS>ATOM
   1 C1           3.8619    -4.7818     0.9963 C.3          1    LIG   0.0000
   2 C2           2.9679    -3.5534     0.9997 C.ar         1    LIG   0.0000
   3 C3           3.0510    -2.6390    -0.0448 C.ar         1    LIG   0.0000
   4 C4           2.2357    -1.5120    -0.0490 C.ar         1    LIG   0.0000
   5 C5           1.3437    -1.3148     1.0000 C.ar         1    LIG   0.0000
   6 C6           0.4916    -0.1419     1.0000 C.2          1    LIG   0.0000
   7 N7           1.0000     1.0000     1.0000 N.2          1    LIG   0.0000
   8 N8           2.3700     1.0000     1.0000 N.pl3        1    LIG   0.0000
   9 C9           3.1050     2.2731     1.0000 C.3          1    LIG   0.0000
  10 C10          4.1561     2.2513     2.0978 C.3          1    LIG   0.0000
  11 C11          3.7828     2.4668    -0.3466 C.3          1    LIG   0.0000
  12 F12          2.8766     2.3773    -1.3160 F            1    LIG   0.0000
  13 F13          4.3568     3.6659    -0.3856 F            1    LIG   0.0000
  14 F14          4.7081     1.5266    -0.5166 F            1    LIG   0.0000
  15 C15          1.2547    -2.2238     2.0496 C.ar         1    LIG   0.0000
  16 C16          2.0736    -3.3477     2.0458 C.ar         1    LIG   0.0000
  17 H            2.4676     3.0260     1.1637 H            1    LIG   0.0000
  18 H            3.6775    -5.3306     1.8116 H            1    LIG   0.0000
  19 H            3.6764    -5.3268     0.1786 H            1    LIG   0.0000
  20 H            4.8204    -4.4965     0.9963 H            1    LIG   0.0000
  21 H            3.6969    -2.7918    -0.7929 H            1    LIG   0.0000
  22 H            2.2901    -0.8512    -0.7976 H            1    LIG   0.0000
  23 H           -0.5029    -0.2465     1.0000 H            1    LIG   0.0000
  24 H            2.8700     0.1340     1.0000 H            1    LIG   0.0000
  25 H            4.6561     3.1173     2.0978 H            1    LIG   0.0000
  26 H            3.7102     2.1238     2.9837 H            1    LIG   0.0000
  27 H            4.7935     1.4983     1.9341 H            1    LIG   0.0000
  28 H            0.6093    -2.0707     2.7980 H            1    LIG   0.0000
  29 H            2.0198    -4.0081     2.7947 H            1    LIG   0.0000
@<TRIPOS>BOND
   1        1        2 1
   2        2        3 ar
   3        3        4 ar
   4        4        5 ar
   5        5        6 1
   6        6        7 2
   7        7        8 1
   8        8        9 1
   9        9       10 1
  10        9       11 1
  11       11       12 1
  12       11       13 1
  13       11       14 1
  14        5       15 ar
  15       15       16 ar
  16       16        2 ar
  17        9       17 1
  18        1       18 1
  19        1       19 1
  20        1       20 1
  21        3       21 1
  22        4       22 1
  23        6       23 1
  24        8       24 1
  25       10       25 1
  26       10       26 1
  27       10       27 1
  28       15       28 1
  29       16       29 1

@<TRIPOS>MOLECULE

  29   29
SMALL
USER_CHARGES
@<TRIPOS>ATOM
   1 C1           3.8652    -4.7794     1.0014 C.3          1    LIG   0.0000
   2 C2           2.9703    -3.5516     0.9986 C.ar         1    LIG   0.0000
   3 C3           3.0515    -2.6387     2.0445 C.ar         1    LIG   0.0000
   4 C4           2.2357    -1.5120     2.0490 C.ar         1    LIG   0.0000
   5 C5           1.3437    -1.3148     1.0000 C.ar         1    LIG   0.0000
   6 C6           0.4916    -0.1419     1.0000 C.2          1    LIG   0.0000
   7 N7           1.0000     1.0000     1.0000 N.2          1    LIG   0.0000
   8 N8           2.3700     1.0000     1.0000 N.pl3        1    LIG   0.0000
   9 C9           3.1050     2.2731     1.0000 C.3          1    LIG   0.0000
  10 C10          2.5606     3.1724    -0.0978 C.3          1    LIG   0.0000
  11 C11          2.9339     2.9569     2.3466 C.3          1    LIG   0.0000
  12 F12          3.3095     2.1274     3.3160 F            1    LIG   0.0000
  13 F13          3.6853     4.0536     2.3856 F            1    LIG   0.0000
  14 F14          1.6570     3.2881     2.5166 F            1    LIG   0.0000
  15 C15          1.2551    -2.2235    -0.0499 C.ar         1    LIG   0.0000
  16 C16          2.0744    -3.3471    -0.0464 C.ar         1    LIG   0.0000
  17 H            4.0758     2.0975     0.8363 H            1    LIG   0.0000
  18 H            3.6821    -5.3272     0.1851 H            1    LIG   0.0000
  19 H            4.8235    -4.4934     1.0028 H            1    LIG   0.0000
  20 H            3.6792    -5.3256     1.8181 H            1    LIG   0.0000
  21 H            3.6963    -2.7922     2.7933 H            1    LIG   0.0000
  22 H            2.2898    -0.8515     2.7978 H            1    LIG   0.0000
  23 H           -0.5029    -0.2465     1.0000 H            1    LIG   0.0000
  24 H            2.8700     0.1340     1.0000 H            1    LIG   0.0000
  25 H            3.0606     4.0384    -0.0978 H            1    LIG   0.0000
  26 H            2.6732     2.7225    -0.9837 H            1    LIG   0.0000
  27 H            1.5898     3.3480     0.0659 H            1    LIG   0.0000
  28 H            0.6098    -2.0704    -0.7983 H            1    LIG   0.0000
  29 H            2.0197    -4.0082    -0.7947 H            1    LIG   0.0000
@<TRIPOS>BOND
   1        1        2 1
   2        2        3 ar
   3        3        4 ar
   4        4        5 ar
   5        5        6 1
   6        6        7 2
   7        7        8 1
   8        8        9 1
   9        9       10 1
  10        9       11 1
  11       11       12 1
  12       11       13 1
  13       11       14 1
  14        5       15 ar
  15       15       16 ar
  16       16        2 ar
  17        9       17 1
  18        1       18 1
  19        1       19 1
  20        1       20 1
  21        3       21 1
  22        4       22 1
  23        6       23 1
  24        8       24 1
  25       10       25 1
  26       10       26 1
  27       10       27 1
  28       15       28 1
  29       16       29 1

@<TRIPOS>MOLECULE

  29   29
SMALL
USER_CHARGES
@<TRIPOS>ATOM
   1 C1           3.8619    -4.7818     0.9963 C.3          1    LIG   0.0000
   2 C2           2.9679    -3.5534     0.9997 C.ar         1    LIG   0.0000
   3 C3           3.0510    -2.6390    -0.0448 C.ar         1    LIG   0.0000
   4 C4           2.2357    -1.5120    -0.0490 C.ar         1    LIG   0.0000
   5 C5           1.3437    -1.3148     1.0000 C.ar         1    LIG   0.0000
   6 C6           0.4916    -0.1419     1.0000 C.2          1    LIG   0.0000
   7 N7           1.0000     1.0000     1.0000 N.2          1    LIG   0.0000
   8 N8           2.3700     1.0000     1.0000 N.pl3        1    LIG   0.0000
   9 C9           3.1050     2.2731     1.0000 C.3          1    LIG   0.0000
  10 C10          2.5606     3.1724    -0.0978 C.3          1    LIG   0.0000
  11 C11          2.9339     2.9569     2.3466 C.3          1    LIG   0.0000
  12 F12          3.3095     2.1274     3.3160 F            1    LIG   0.0000
  13 F13          3.6853     4.0536     2.3856 F            1    LIG   0.0000
  14 F14          1.6570     3.2881     2.5166 F            1    LIG   0.0000
  15 C15          1.2547    -2.2238     2.0496 C.ar         1    LIG   0.0000
  16 C16          2.0736    -3.3477     2.0458 C.ar         1    LIG   0.0000
  17 H            4.0758     2.0975     0.8363 H            1    LIG   0.0000
  18 H            3.6775    -5.3306     1.8116 H            1    LIG   0.0000
  19 H            3.6764    -5.3268     0.1786 H            1    LIG   0.0000
  20 H            4.8204    -4.4965     0.9963 H            1    LIG   0.0000
  21 H            3.6969    -2.7918    -0.7929 H            1    LIG   0.0000
  22 H            2.2901    -0.8512    -0.7976 H            1    LIG   0.0000
  23 H           -0.5029    -0.2465     1.0000 H            1    LIG   0.0000
  24 H            2.8700     0.1340     1.0000 H            1    LIG   0.0000
  25 H            3.0606     4.0384    -0.0978 H            1    LIG   0.0000
  26 H            2.6732     2.7225    -0.9837 H            1    LIG   0.0000
  27 H            1.5898     3.3480     0.0659 H            1    LIG   0.0000
  28 H            0.6093    -2.0707     2.7980 H            1    LIG   0.0000
  29 H            2.0198    -4.0081     2.7947 H            1    LIG   0.0000
@<TRIPOS>BOND
   1        1        2 1
   2        2        3 ar
   3        3        4 ar
   4        4        5 ar
   5        5        6 1
   6        6        7 2
   7        7        8 1
   8        8        9 1
   9        9       10 1
  10        9       11 1
  11       11       12 1
  12       11       13 1
  13       11       14 1
  14        5       15 ar
  15       15       16 ar
  16       16        2 ar
  17        9       17 1
  18        1       18 1
  19        1       19 1
  20        1       20 1
  21        3       21 1
  22        4       22 1
  23        6       23 1
  24        8       24 1
  25       10       25 1
  26       10       26 1
  27       10       27 1
  28       15       28 1
  29       16       29 1

@<TRIPOS>MOLECULE

  29   29
SMALL
USER_CHARGES
@<TRIPOS>ATOM
   1 C1           3.8652    -4.7794     1.0014 C.3          1    LIG   0.0000
   2 C2           2.9703    -3.5516     0.9986 C.ar         1    LIG   0.0000
   3 C3           3.0515    -2.6387     2.0445 C.ar         1    LIG   0.0000
   4 C4           2.2357    -1.5120     2.0490 C.ar         1    LIG   0.0000
   5 C5           1.3437    -1.3148     1.0000 C.ar         1    LIG   0.0000
   6 C6           0.4916    -0.1419     1.0000 C.2          1    LIG   0.0000
   7 N7           1.0000     1.0000     1.0000 N.2          1    LIG   0.0000
   8 N8           2.3700     1.0000     1.0000 N.pl3        1    LIG   0.0000
   9 C9           3.1050     2.2731     1.0000 C.3          1    LIG   0.0000
  10 C10          2.1361     3.4175     0.7512 C.3          1    LIG   0.0000
  11 C11          3.7828     2.4668     2.3466 C.3          1    LIG   0.0000
  12 F12          4.5481     1.4123     2.6135 F            1    LIG   0.0000
  13 F13          4.5352     3.5629     2.3107 F            1    LIG   0.0000
  14 F14          2.8582     2.5947     3.2941 F            1    LIG   0.0000
  15 C15          1.2551    -2.2235    -0.0499 C.ar         1    LIG   0.0000
  16 C16          2.0744    -3.3471    -0.0464 C.ar         1    LIG   0.0000
  17 H            3.7965     2.2587     0.2778 H            1    LIG   0.0000
  18 H            3.6821    -5.3272     0.1851 H            1    LIG   0.0000
  19 H            4.8235    -4.4934     1.0028 H            1    LIG   0.0000
  20 H            3.6792    -5.3256     1.8181 H            1    LIG   0.0000
  21 H            3.6963    -2.7922     2.7933 H            1    LIG   0.0000
  22 H            2.2898    -0.8515     2.7978 H            1    LIG   0.0000
  23 H           -0.5029    -0.2465     1.0000 H            1    LIG   0.0000
  24 H            2.8700     0.1340     1.0000 H            1    LIG   0.0000
  25 H            2.6361     4.2835     0.7512 H            1    LIG   0.0000
  26 H            1.6902     3.2900    -0.1348 H            1    LIG   0.0000
  27 H            1.4446     3.4318     1.4734 H            1    LIG   0.0000
  28 H            0.6098    -2.0704    -0.7983 H            1    LIG   0.0000
  29 H            2.0197    -4.0082    -0.7947 H            1    LIG   0.0000
@<TRIPOS>BOND
   1        1        2 1
   2        2        3 ar
   3        3        4 ar
   4        4        5 ar
   5        5        6 1
   6        6        7 2
   7        7        8 1
   8        8        9 1
   9        9       10 1
  10        9       11 1
  11       11       12 1
  12       11       13 1
  13       11       14 1
  14        5       15 ar
  15       15       16 ar
  16       16        2 ar
  17        9       17 1
  18        1       18 1
  19        1       19 1
  20        1       20 1
  21        3       21 1
  22        4       22 1
  23        6       23 1
  24        8       24 1
  25       10       25 1
  26       10       26 1
  27       10       27 1
  28       15       28 1
  29       16       29 1

@<TRIPOS>MOLECULE

  29   29
SMALL
USER_CHARGES
@<TRIPOS>ATOM
   1 C1           3.8619    -4.7818     0.9963 C.3          1    LIG   0.0000
   2 C2           2.9679    -3.5534     0.9997 C.ar         1    LIG   0.0000
   3 C3           3.0510    -2.6390    -0.0448 C.ar         1    LIG   0.0000
   4 C4           2.2357    -1.5120    -0.0490 C.ar         1    LIG   0.0000
   5 C5           1.3437    -1.3148     1.0000 C.ar         1    LIG   0.0000
   6 C6           0.4916    -0.1419     1.0000 C.2          1    LIG   0.0000
   7 N7           1.0000     1.0000     1.0000 N.2          1    LIG   0.0000
   8 N8           2.3700     1.0000     1.0000 N.pl3        1    LIG   0.0000
   9 C9           3.1050     2.2731     1.0000 C.3          1    LIG   0.0000
  10 C10          2.1361     3.4175     0.7512 C.3          1    LIG   0.0000
  11 C11          3.7828     2.4668     2.3466 C.3          1    LIG   0.0000
  12 F12          4.5481     1.4123     2.6135 F            1    LIG   0.0000
  13 F13          4.5352     3.5629     2.3107 F            1    LIG   0.0000
  14 F14          2.8582     2.5947     3.2941 F            1    LIG   0.0000
  15 C15          1.2547    -2.2238     2.0496 C.ar         1    LIG   0.0000
  16 C16          2.0736    -3.3477     2.0458 C.ar         1    LIG   0.0000
  17 H            3.7965     2.2587     0.2778 H            1    LIG   0.0000
  18 H            3.6775    -5.3306     1.8116 H            1    LIG   0.0000
  19 H            3.6764    -5.3268     0.1786 H            1    LIG   0.0000
  20 H            4.8204    -4.4965     0.9963 H            1    LIG   0.0000
  21 H            3.6969    -2.7918    -0.7929 H            1    LIG   0.0000
  22 H            2.2901    -0.8512    -0.7976 H            1    LIG   0.0000
  23 H           -0.5029    -0.2465     1.0000 H            1    LIG   0.0000
  24 H            2.8700     0.1340     1.0000 H            1    LIG   0.0000
  25 H            2.6361     4.2835     0.7512 H            1    LIG   0.0000
  26 H            1.6902     3.2900    -0.1348 H            1    LIG   0.0000
  27 H            1.4446     3.4318     1.4734 H            1    LIG   0.0000
  28 H            0.6093    -2.0707     2.7980 H            1    LIG   0.0000
  29 H            2.0198    -4.0081     2.7947 H            1    LIG   0.0000
@<TRIPOS>BOND
   1        1        2 1
   2        2        3 ar
   3        3        4 ar
   4        4        5 ar
   5        5        6 1
   6        6        7 2
   7        7        8 1
   8        8        9 1
   9        9       10 1
  10        9       11 1
  11       11       12 1
  12       11       13 1
  13       11       14 1
  14        5       15 ar
  15       15       16 ar
  16       16        2 ar
  17        9       17 1
  18        1       18 1
  19        1       19 1
  20        1       20 1
  21        3       21 1
  22        4       22 1
  23        6       23 1
  24        8       24 1
  25       10       25 1
  26       10       26 1
  27       10       27 1
  28       15       28 1
  29       16       29 1

@<TRIPOS>MOLECULE

  29   29
SMALL
USER_CHARGES
@<TRIPOS>ATOM
   1 C1           3.8652    -4.7794     1.0014 C.3          1    LIG   0.0000
   2 C2           2.9703    -3.5516     0.9986 C.ar         1    LIG   0.0000
   3 C3           3.0515    -2.6387     2.0445 C.ar         1    LIG   0.0000
   4 C4           2.2357    -1.5120     2.0490 C.ar         1    LIG   0.0000
   5 C5           1.3437    -1.3148     1.0000 C.ar         1    LIG   0.0000
   6 C6           0.4916    -0.1419     1.0000 C.2          1    LIG   0.0000
   7 N7           1.0000     1.0000     1.0000 N.2          1    LIG   0.0000
   8 N8           2.3700     1.0000     1.0000 N.pl3        1    LIG   0.0000
   9 C9           3.1050     2.2731     1.0000 C.3          1    LIG   0.0000
  10 C10          3.3583     2.7118    -0.4331 C.3          1    LIG   0.0000
  11 C11          2.2835     3.3324     1.7165 C.3          1    LIG   0.0000
  12 F12          1.9696     2.9010     2.9348 F            1    LIG   0.0000
  13 F13          2.9925     4.4536     1.8123 F            1    LIG   0.0000
  14 F14          1.1697     3.5695     1.0295 F            1    LIG   0.0000
  15 C15          1.2551    -2.2235    -0.0499 C.ar         1    LIG   0.0000
  16 C16          2.0744    -3.3471    -0.0464 C.ar         1    LIG   0.0000
  17 H            3.9788     2.1535     1.4714 H            1    LIG   0.0000
  18 H            3.6821    -5.3272     0.1851 H            1    LIG   0.0000
  19 H            4.8235    -4.4934     1.0028 H            1    LIG   0.0000
  20 H            3.6792    -5.3256     1.8181 H            1    LIG   0.0000
  21 H            3.6963    -2.7922     2.7933 H            1    LIG   0.0000
  22 H            2.2898    -0.8515     2.7978 H            1    LIG   0.0000
  23 H           -0.5029    -0.2465     1.0000 H            1    LIG   0.0000
  24 H            2.8700     0.1340     1.0000 H            1    LIG   0.0000
  25 H            3.8583     3.5779    -0.4331 H            1    LIG   0.0000
  26 H            3.8988     2.0149    -0.9045 H            1    LIG   0.0000
  27 H            2.4846     2.8314    -0.9045 H            1    LIG   0.0000
  28 H            0.6098    -2.0704    -0.7983 H            1    LIG   0.0000
  29 H            2.0197    -4.0082    -0.7947 H            1    LIG   0.0000
@<TRIPOS>BOND
   1        1        2 1
   2        2        3 ar
   3        3        4 ar
   4        4        5 ar
   5        5        6 1
   6        6        7 2
   7        7        8 1
   8        8        9 1
   9        9       10 1
  10        9       11 1
  11       11       12 1
  12       11       13 1
  13       11       14 1
  14        5       15 ar
  15       15       16 ar
  16       16        2 ar
  17        9       17 1
  18        1       18 1
  19        1       19 1
  20        1       20 1
  21        3       21 1
  22        4       22 1
  23        6       23 1
  24        8       24 1
  25       10       25 1
  26       10       26 1
  27       10       27 1
  28       15       28 1
  29       16       29 1

@<TRIPOS>MOLECULE

  29   29
SMALL
USER_CHARGES
@<TRIPOS>ATOM
   1 C1           3.8619    -4.7818     0.9963 C.3          1    LIG   0.0000
   2 C2           2.9679    -3.5534     0.9997 C.ar         1    LIG   0.0000
   3 C3           3.0510    -2.6390    -0.0448 C.ar         1    LIG   0.0000
   4 C4           2.2357    -1.5120    -0.0490 C.ar         1    LIG   0.0000
   5 C5           1.3437    -1.3148     1.0000 C.ar         1    LIG   0.0000
   6 C6           0.4916    -0.1419     1.0000 C.2          1    LIG   0.0000
   7 N7           1.0000     1.0000     1.0000 N.2          1    LIG   0.0000
   8 N8           2.3700     1.0000     1.0000 N.pl3        1    LIG   0.0000
   9 C9           3.1050     2.2731     1.0000 C.3          1    LIG   0.0000
  10 C10          3.3583     2.7118    -0.4331 C.3          1    LIG   0.0000
  11 C11          2.2835     3.3324     1.7165 C.3          1    LIG   0.0000
  12 F12          1.9696     2.9010     2.9348 F            1    LIG   0.0000
  13 F13          2.9925     4.4536     1.8123 F            1    LIG   0.0000
  14 F14          1.1697     3.5695     1.0295 F            1    LIG   0.0000
  15 C15          1.2547    -2.2238     2.0496 C.ar         1    LIG   0.0000
  16 C16          2.0736    -3.3477     2.0458 C.ar         1    LIG   0.0000
  17 H            3.9788     2.1535     1.4714 H            1    LIG   0.0000
  18 H            3.6775    -5.3306     1.8116 H            1    LIG   0.0000
  19 H            3.6764    -5.3268     0.1786 H            1    LIG   0.0000
  20 H            4.8204    -4.4965     0.9963 H            1    LIG   0.0000
  21 H            3.6969    -2.7918    -0.7929 H            1    LIG   0.0000
  22 H            2.2901    -0.8512    -0.7976 H            1    LIG   0.0000
  23 H           -0.5029    -0.2465     1.0000 H            1    LIG   0.0000
  24 H            2.8700     0.1340     1.0000 H            1    LIG   0.0000
  25 H            3.8583     3.5779    -0.4331 H            1    LIG   0.0000
  26 H            3.8988     2.0149    -0.9045 H            1    LIG   0.0000
  27 H            2.4846     2.8314    -0.9045 H            1    LIG   0.0000
  28 H            0.6093    -2.0707     2.7980 H            1    LIG   0.0000
  29 H            2.0198    -4.0081     2.7947 H            1    LIG   0.0000
@<TRIPOS>BOND
   1        1        2 1
   2        2        3 ar
   3        3        4 ar
   4        4        5 ar
   5        5        6 1
   6        6        7 2
   7        7        8 1
   8        8        9 1
   9        9       10 1
  10        9       11 1
  11       11       12 1
  12       11       13 1
  13       11       14 1
  14        5       15 ar
  15       15       16 ar
  16       16        2 ar
  17        9       17 1
  18        1       18 1
  19        1       19 1
  20        1       20 1
  21        3       21 1
  22        4       22 1
  23        6       23 1
  24        8       24 1
  25       10       25 1
  26       10       26 1
  27       10       27 1
  28       15       28 1
  29       16       29 1

@<TRIPOS>MOLECULE

  29   29
SMALL
USER_CHARGES
@<TRIPOS>ATOM
   1 C1           3.8652    -4.7794     1.0014 C.3          1    LIG   0.0000
   2 C2           2.9703    -3.5516     0.9986 C.ar         1    LIG   0.0000
   3 C3           3.0515    -2.6387     2.0445 C.ar         1    LIG   0.0000
   4 C4           2.2357    -1.5120     2.0490 C.ar         1    LIG   0.0000
   5 C5           1.3437    -1.3148     1.0000 C.ar         1    LIG   0.0000
   6 C6           0.4916    -0.1419     1.0000 C.2          1    LIG   0.0000
   7 N7           1.0000     1.0000     1.0000 N.2          1    LIG   0.0000
   8 N8           2.3700     1.0000     1.0000 N.pl3        1    LIG   0.0000
   9 C9           3.1050     2.2731     1.0000 C.3          1    LIG   0.0000
  10 C10          2.7378     3.0701     2.2411 C.3          1    LIG   0.0000
  11 C11          4.5994     1.9953     1.0000 C.3          1    LIG   0.0000
  12 F12          4.9038     1.2069    -0.0270 F            1    LIG   0.0000
  13 F13          5.2635     3.1424     0.8904 F            1    LIG   0.0000
  14 F14          4.9385     1.3936     2.1366 F            1    LIG   0.0000
  15 C15          1.2551    -2.2235    -0.0499 C.ar         1    LIG   0.0000
  16 C16          2.0744    -3.3471    -0.0464 C.ar         1    LIG   0.0000
  17 H            2.8634     2.7974     0.1835 H            1    LIG   0.0000
  18 H            3.6821    -5.3272     0.1851 H            1    LIG   0.0000
  19 H            4.8235    -4.4934     1.0028 H            1    LIG   0.0000
  20 H            3.6792    -5.3256     1.8181 H            1    LIG   0.0000
  21 H            3.6963    -2.7922     2.7933 H            1    LIG   0.0000
  22 H            2.2898    -0.8515     2.7978 H            1    LIG   0.0000
  23 H           -0.5029    -0.2465     1.0000 H            1    LIG   0.0000
  24 H            2.8700     0.1340     1.0000 H            1    LIG   0.0000
  25 H            3.2378     3.9361     2.2411 H            1    LIG   0.0000
  26 H            1.7546     3.2528     2.2411 H            1    LIG   0.0000
  27 H            2.9794     2.5457     3.0576 H            1    LIG   0.0000
  28 H            0.6098    -2.0704    -0.7983 H            1    LIG   0.0000
  29 H            2.0197    -4.0082    -0.7947 H            1    LIG   0.0000
@<TRIPOS>BOND
   1        1        2 1
   2        2        3 ar
   3        3        4 ar
   4        4        5 ar
   5        5        6 1
   6        6        7 2
   7        7        8 1
   8        8        9 1
   9        9       10 1
  10        9       11 1
  11       11       12 1
  12       11       13 1
  13       11       14 1
  14        5       15 ar
  15       15       16 ar
  16       16        2 ar
  17        9       17 1
  18        1       18 1
  19        1       19 1
  20        1       20 1
  21        3       21 1
  22        4       22 1
  23        6       23 1
  24        8       24 1
  25       10       25 1
  26       10       26 1
  27       10       27 1
  28       15       28 1
  29       16       29 1

@<TRIPOS>MOLECULE

  29   29
SMALL
USER_CHARGES
@<TRIPOS>ATOM
   1 C1           3.8619    -4.7818     0.9963 C.3          1    LIG   0.0000
   2 C2           2.9679    -3.5534     0.9997 C.ar         1    LIG   0.0000
   3 C3           3.0510    -2.6390    -0.0448 C.ar         1    LIG   0.0000
   4 C4           2.2357    -1.5120    -0.0490 C.ar         1    LIG   0.0000
   5 C5           1.3437    -1.3148     1.0000 C.ar         1    LIG   0.0000
   6 C6           0.4916    -0.1419     1.0000 C.2          1    LIG   0.0000
   7 N7           1.0000     1.0000     1.0000 N.2          1    LIG   0.0000
   8 N8           2.3700     1.0000     1.0000 N.pl3        1    LIG   0.0000
   9 C9           3.1050     2.2731     1.0000 C.3          1    LIG   0.0000
  10 C10          2.7378     3.0701     2.2411 C.3          1    LIG   0.0000
  11 C11          4.5994     1.9953     1.0000 C.3          1    LIG   0.0000
  12 F12          4.9038     1.2069    -0.0270 F            1    LIG   0.0000
  13 F13          5.2635     3.1424     0.8904 F            1    LIG   0.0000
  14 F14          4.9385     1.3936     2.1366 F            1    LIG   0.0000
  15 C15          1.2547    -2.2238     2.0496 C.ar         1    LIG   0.0000
  16 C16          2.0736    -3.3477     2.0458 C.ar         1    LIG   0.0000
  17 H            2.8634     2.7974     0.1835 H            1    LIG   0.0000
  18 H            3.6775    -5.3306     1.8116 H            1    LIG   0.0000
  19 H            3.6764    -5.3268     0.1786 H            1    LIG   0.0000
  20 H            4.8204    -4.4965     0.9963 H            1    LIG   0.0000
  21 H            3.6969    -2.7918    -0.7929 H            1    LIG   0.0000
  22 H            2.2901    -0.8512    -0.7976 H            1    LIG   0.0000
  23 H           -0.5029    -0.2465     1.0000 H            1    LIG   0.0000
  24 H            2.8700     0.1340     1.0000 H            1    LIG   0.0000
  25 H            3.2378     3.9361     2.2411 H            1    LIG   0.0000
  26 H            1.7546     3.2528     2.2411 H            1    LIG   0.0000
  27 H            2.9794     2.5457     3.0576 H            1    LIG   0.0000
  28 H            0.6093    -2.0707     2.7980 H            1    LIG   0.0000
  29 H            2.0198    -4.0081     2.7947 H            1    LIG   0.0000
@<TRIPOS>BOND
   1        1        2 1
   2        2        3 ar
   3        3        4 ar
   4        4        5 ar
   5        5        6 1
   6        6        7 2
   7        7        8 1
   8        8        9 1
   9        9       10 1
  10        9       11 1
  11       11       12 1
  12       11       13 1
  13       11       14 1
  14        5       15 ar
  15       15       16 ar
  16       16        2 ar
  17        9       17 1
  18        1       18 1
  19        1       19 1
  20        1       20 1
  21        3       21 1
  22        4       22 1
  23        6       23 1
  24        8       24 1
  25       10       25 1
  26       10       26 1
  27       10       27 1
  28       15       28 1
  29       16       29 1

