@<TRIPOS>MOLECULE
*****
 29 29 0 0 0
SMALL
USER_CHARGES

@<TRIPOS>ATOM
      1 C1          3.8619   -4.7818    0.9963 C.3     1  LIG1        0.0000
      2 C2          2.9679   -3.5534    0.9997 C.ar    1  LIG1        0.0000
      3 C3          3.0510   -2.6390   -0.0448 C.ar    1  LIG1        0.0000
      4 C4          2.2357   -1.5120   -0.0490 C.ar    1  LIG1        0.0000
      5 C5          1.3437   -1.3148    1.0000 C.ar    1  LIG1        0.0000
      6 C6          0.4916   -0.1419    1.0000 C.2     1  LIG1        0.0000
      7 N7          1.0000    1.0000    1.0000 N.2     1  LIG1        0.0000
      8 N8          2.3700    1.0000    1.0000 N.pl3   1  LIG1        0.0000
      9 C9          3.1050    2.2731    1.0000 C.3     1  LIG1        0.0000
     10 C10         4.1561    2.2513    2.0978 C.3     1  LIG1        0.0000
     11 C11         3.7828    2.4668   -0.3466 C.3     1  LIG1        0.0000
     12 F12         2.8766    2.3773   -1.3160 F       1  LIG1        0.0000
     13 F13         4.3568    3.6659   -0.3856 F       1  LIG1        0.0000
     14 F14         4.7081    1.5266   -0.5166 F       1  LIG1        0.0000
     15 C15         1.2547   -2.2238    2.0496 C.ar    1  LIG1        0.0000
     16 C16         2.0736   -3.3477    2.0458 C.ar    1  LIG1        0.0000
     17 H           2.4676    3.0260    1.1637 H       1  LIG1        0.0000
     18 H           3.6775   -5.3306    1.8116 H       1  LIG1        0.0000
     19 H           3.6764   -5.3268    0.1786 H       1  LIG1        0.0000
     20 H           4.8204   -4.4965    0.9963 H       1  LIG1        0.0000
     21 H           3.6969   -2.7918   -0.7929 H       1  LIG1        0.0000
     22 H           2.2901   -0.8512   -0.7976 H       1  LIG1        0.0000
     23 H          -0.5029   -0.2465    1.0000 H       1  LIG1        0.0000
     24 H           2.8700    0.1340    1.0000 H       1  LIG1        0.0000
     25 H           4.6561    3.1173    2.0978 H       1  LIG1        0.0000
     26 H           3.7102    2.1238    2.9837 H       1  LIG1        0.0000
     27 H           4.7935    1.4983    1.9341 H       1  LIG1        0.0000
     28 H           0.6093   -2.0707    2.7980 H       1  LIG1        0.0000
     29 H           2.0198   -4.0081    2.7947 H       1  LIG1        0.0000
@<TRIPOS>BOND
     1     1     2    1
     2     2     3   ar
     3     3     4   ar
     4     4     5   ar
     5     5     6    1
     6     6     7    2
     7     7     8    1
     8     8     9    1
     9     9    10    1
    10     9    11    1
    11    11    12    1
    12    11    13    1
    13    11    14    1
    14     5    15   ar
    15    15    16   ar
    16    16     2   ar
    17     9    17    1
    18     1    18    1
    19     1    19    1
    20     1    20    1
    21     3    21    1
    22     4    22    1
    23     6    23    1
    24     8    24    1
    25    10    25    1
    26    10    26    1
    27    10    27    1
    28    15    28    1
    29    16    29    1
