@<TRIPOS>MOLECULE
*****
 29 29 0 0 0
SMALL
USER_CHARGES

@<TRIPOS>ATOM
      1 C1          3.8652   -4.7794    1.0014 C.3     1  LIG1        0.0000
      2 C2          2.9703   -3.5516    0.9986 C.ar    1  LIG1        0.0000
      3 C3          3.0515   -2.6387    2.0445 C.ar    1  LIG1        0.0000
      4 C4          2.2357   -1.5120    2.0490 C.ar    1  LIG1        0.0000
      5 C5          1.3437   -1.3148    1.0000 C.ar    1  LIG1        0.0000
      6 C6          0.4916   -0.1419    1.0000 C.2     1  LIG1        0.0000
      7 N7          1.0000    1.0000    1.0000 N.2     1  LIG1        0.0000
      8 N8          2.3700    1.0000    1.0000 N.pl3   1  LIG1        0.0000
      9 C9          3.1050    2.2731    1.0000 C.3     1  LIG1        0.0000
     10 C10         2.7378    3.0701    2.2411 C.3     1  LIG1        0.0000
     11 C11         4.5994    1.9953    1.0000 C.3     1  LIG1        0.0000
     12 F12         4.9038    1.2069   -0.0270 F       1  LIG1        0.0000
     13 F13         5.2635    3.1424    0.8904 F       1  LIG1        0.0000
     14 F14         4.9385    1.3936    2.1366 F       1  LIG1        0.0000
     15 C15         1.2551   -2.2235   -0.0499 C.ar    1  LIG1        0.0000
     16 C16         2.0744   -3.3471   -0.0464 C.ar    1  LIG1        0.0000
     17 H           2.8634    2.7974    0.1835 H       1  LIG1        0.0000
     18 H           3.6821   -5.3272    0.1851 H       1  LIG1        0.0000
     19 H           4.8235   -4.4934    1.0028 H       1  LIG1        0.0000
     20 H           3.6792   -5.3256    1.8181 H       1  LIG1        0.0000
     21 H           3.6963   -2.7922    2.7933 H       1  LIG1        0.0000
     22 H           2.2898   -0.8515    2.7978 H       1  LIG1        0.0000
     23 H          -0.5029   -0.2465    1.0000 H       1  LIG1        0.0000
     24 H           2.8700    0.1340    1.0000 H       1  LIG1        0.0000
     25 H           3.2378    3.9361    2.2411 H       1  LIG1        0.0000
     26 H           1.7546    3.2528    2.2411 H       1  LIG1        0.0000
     27 H           2.9794    2.5457    3.0576 H       1  LIG1        0.0000
     28 H           0.6098   -2.0704   -0.7983 H       1  LIG1        0.0000
     29 H           2.0197   -4.0082   -0.7947 H       1  LIG1        0.0000
@<TRIPOS>BOND
     1     1     2    1
     2     2     3   ar
     3     3     4   ar
     4     4     5   ar
     5     5     6    1
     6     6     7    2
     7     7     8    1
     8     8     9    1
     9     9    10    1
    10     9    11    1
    11    11    12    1
    12    11    13    1
    13    11    14    1
    14     5    15   ar
    15    15    16   ar
    16    16     2   ar
    17     9    17    1
    18     1    18    1
    19     1    19    1
    20     1    20    1
    21     3    21    1
    22     4    22    1
    23     6    23    1
    24     8    24    1
    25    10    25    1
    26    10    26    1
    27    10    27    1
    28    15    28    1
    29    16    29    1
